<?xml version="1.0" encoding="UTF-8"?>

<!-- generated on 2025-05-05 21:03:15 by Eclipse SUMO netconvert Version 1.22.0
<netconvertConfiguration xmlns:xsi="http://www.w3.org/2001/XMLSchema-instance" xsi:noNamespaceSchemaLocation="http://sumo.dlr.de/xsd/netconvertConfiguration.xsd">

    <input>
        <osm-files value="map-roads+buildings.osm"/>
    </input>

    <output>
        <output-file value="city-area.net.xml"/>
    </output>

    <projection>
        <proj.utm value="true"/>
    </projection>

    <ramp_guessing>
        <ramps.guess value="true"/>
    </ramp_guessing>

    <junctions>
        <no-internal-links value="true"/>
    </junctions>

</netconvertConfiguration>
-->

<net version="1.20" junctionCornerDetail="5" limitTurnSpeed="5.50" xmlns:xsi="http://www.w3.org/2001/XMLSchema-instance" xsi:noNamespaceSchemaLocation="http://sumo.dlr.de/xsd/net_file.xsd">

    <location netOffset="-587355.87,-2325611.00" convBoundary="0.00,0.00,2593.13,1887.94" origBoundary="105.840697,21.029131,105.865728,21.046147" projParameter="+proj=utm +zone=48 +ellps=WGS84 +datum=WGS84 +units=m +no_defs"/>

    <type id="highway.busway" priority="1" numLanes="1" speed="27.78" allow="bus" oneway="1"/>
    <type id="highway.footway" priority="1" numLanes="1" speed="2.78" allow="pedestrian" oneway="1" width="2.00"/>
    <type id="highway.path" priority="1" numLanes="1" speed="5.56" allow="pedestrian bicycle" oneway="0" width="2.00"/>
    <type id="highway.pedestrian" priority="1" numLanes="1" speed="2.78" allow="pedestrian" oneway="1" width="2.00"/>
    <type id="highway.primary" priority="12" numLanes="2" speed="27.78" disallow="tram rail_urban rail rail_electric rail_fast ship container cable_car subway aircraft wheelchair scooter drone" oneway="0"/>
    <type id="highway.primary_link" priority="7" numLanes="1" speed="22.22" disallow="tram rail_urban rail rail_electric rail_fast ship container cable_car subway aircraft wheelchair scooter drone" oneway="0"/>
    <type id="highway.residential" priority="3" numLanes="1" speed="13.89" disallow="tram rail_urban rail rail_electric rail_fast ship container cable_car subway aircraft wheelchair scooter drone" oneway="0"/>
    <type id="highway.secondary" priority="11" numLanes="1" speed="27.78" disallow="tram rail_urban rail rail_electric rail_fast ship container cable_car subway aircraft wheelchair scooter drone" oneway="0"/>
    <type id="highway.service" priority="1" numLanes="1" speed="5.56" allow="pedestrian delivery bicycle" oneway="0"/>
    <type id="highway.steps" priority="1" numLanes="1" speed="1.39" allow="pedestrian" oneway="1" width="2.00"/>
    <type id="highway.tertiary" priority="10" numLanes="1" speed="22.22" disallow="tram rail_urban rail rail_electric rail_fast ship container cable_car subway aircraft wheelchair scooter drone" oneway="0"/>
    <type id="highway.tertiary_link" priority="5" numLanes="1" speed="22.22" disallow="tram rail_urban rail rail_electric rail_fast ship container cable_car subway aircraft wheelchair scooter drone" oneway="0"/>
    <type id="highway.unclassified" priority="4" numLanes="1" speed="13.89" disallow="tram rail_urban rail rail_electric rail_fast ship container cable_car subway aircraft wheelchair scooter drone" oneway="0"/>

    <edge id="-10230481#0" from="6659194065" to="84783436" priority="3" type="highway.residential">
        <lane id="-10230481#0_0" index="0" disallow="tram rail_urban rail rail_electric rail_fast ship container cable_car subway aircraft wheelchair scooter drone" speed="13.89" length="122.09" shape="640.84,565.45 544.30,510.11"/>
    </edge>
    <edge id="-10230481#1" from="84782320" to="6659194065" priority="3" type="highway.residential">
        <lane id="-10230481#1_0" index="0" disallow="tram rail_urban rail rail_electric rail_fast ship container cable_car subway aircraft wheelchair scooter drone" speed="13.89" length="19.15" shape="645.76,571.57 644.77,570.01"/>
    </edge>
    <edge id="-1040117624" from="9577012530" to="6661246419" priority="1" type="highway.service">
        <lane id="-1040117624_0" index="0" allow="pedestrian delivery bicycle" speed="5.56" length="65.30" shape="202.71,1175.98 143.01,1186.40"/>
    </edge>
    <edge id="-1040492971" from="9580345404" to="5689691146" priority="3" type="highway.residential" shape="1651.88,791.01 1634.58,828.66 1619.42,845.15 1597.61,886.71 1587.91,925.90 1581.24,932.35">
        <lane id="-1040492971_0" index="0" disallow="tram rail_urban rail rail_electric rail_fast ship container cable_car subway aircraft wheelchair scooter drone" speed="13.89" length="160.42" shape="1651.49,795.69 1635.93,829.56 1620.74,846.08 1599.12,887.29 1589.35,926.73 1586.81,929.19"/>
    </edge>
    <edge id="-1040492972" from="975689708" to="11802131269" priority="3" type="highway.residential" shape="1960.52,376.52 1890.03,462.68 1818.14,561.77 1800.28,617.37 1795.49,627.05 1677.41,746.22 1666.78,766.75">
        <lane id="-1040492972_0" index="0" disallow="tram rail_urban rail rail_electric rail_fast ship container cable_car subway aircraft wheelchair scooter drone" speed="13.89" length="493.82" shape="1961.76,377.53 1891.29,463.65 1819.59,562.51 1801.77,617.98 1796.81,627.99 1678.72,747.17 1670.26,763.50"/>
    </edge>
    <edge id="-1040498977" from="9580377752" to="9580377753" priority="1" type="highway.service">
        <lane id="-1040498977_0" index="0" allow="pedestrian delivery bicycle" speed="5.56" length="42.77" shape="286.08,392.16 323.23,384.18"/>
    </edge>
    <edge id="-1104924742#0" from="8299505529" to="5689691140" priority="3" type="highway.residential">
        <lane id="-1104924742#0_0" index="0" disallow="tram rail_urban rail rail_electric rail_fast ship container cable_car subway aircraft wheelchair scooter drone" speed="13.89" length="23.68" shape="1364.84,1203.73 1370.78,1193.47"/>
    </edge>
    <edge id="-1104924742#1" from="8299505528" to="8299505529" priority="3" type="highway.residential">
        <lane id="-1104924742#1_0" index="0" disallow="tram rail_urban rail rail_electric rail_fast ship container cable_car subway aircraft wheelchair scooter drone" speed="13.89" length="9.94" shape="1359.12,1214.21 1359.21,1214.03"/>
    </edge>
    <edge id="-1104924742#2" from="8299505526" to="8299505528" priority="3" type="highway.residential">
        <lane id="-1104924742#2_0" index="0" disallow="tram rail_urban rail rail_electric rail_fast ship container cable_car subway aircraft wheelchair scooter drone" speed="13.89" length="19.36" shape="1351.11,1229.13 1353.47,1224.86"/>
    </edge>
    <edge id="-1104924742#3" from="8299505521" to="8299505526" priority="3" type="highway.residential" shape="1335.73,1258.82 1339.21,1253.88 1348.84,1236.51">
        <lane id="-1104924742#3_0" index="0" disallow="tram rail_urban rail rail_electric rail_fast ship container cable_car subway aircraft wheelchair scooter drone" speed="13.89" length="25.90" shape="1338.27,1252.28 1344.11,1241.75"/>
    </edge>
    <edge id="-1104924742#4" from="8299505519" to="8299505521" priority="3" type="highway.residential">
        <lane id="-1104924742#4_0" index="0" disallow="tram rail_urban rail rail_electric rail_fast ship container cable_car subway aircraft wheelchair scooter drone" speed="13.89" length="27.09" shape="1322.81,1274.40 1330.03,1264.15"/>
    </edge>
    <edge id="-1104924742#5" from="5689691138" to="8299505519" priority="3" type="highway.residential">
        <lane id="-1104924742#5_0" index="0" disallow="tram rail_urban rail rail_electric rail_fast ship container cable_car subway aircraft wheelchair scooter drone" speed="13.89" length="43.79" shape="1295.61,1313.05 1314.51,1286.19"/>
    </edge>
    <edge id="-1111014799#0" from="10165804813" to="10165804815" priority="1" type="highway.service">
        <lane id="-1111014799#0_0" index="0" allow="pedestrian delivery bicycle" speed="5.56" length="4.98" shape="1605.80,822.56 1605.62,822.46"/>
    </edge>
    <edge id="-1111014799#1" from="10165939018" to="10165804813" priority="1" type="highway.service" shape="1602.93,827.02 1613.32,832.93 1616.63,826.54 1609.33,822.62">
        <lane id="-1111014799#1_0" index="0" allow="pedestrian delivery bicycle" speed="5.56" length="27.44" shape="1603.72,825.63 1610.80,829.65"/>
    </edge>
    <edge id="-1111016141#0" from="9691814791" to="10165976756" priority="3" type="highway.residential">
        <lane id="-1111016141#0_0" index="0" disallow="tram rail_urban rail rail_electric rail_fast ship container cable_car subway aircraft wheelchair scooter drone" speed="13.89" length="83.83" shape="1546.77,862.68 1580.84,797.26"/>
    </edge>
    <edge id="-1111016141#1" from="10165976762" to="9691814791" priority="3" type="highway.residential" shape="1543.53,919.15 1544.02,911.90 1544.19,909.29 1544.43,905.65 1545.33,892.39 1544.42,889.65 1546.63,885.11 1546.66,879.29 1548.16,872.93 1545.75,868.12">
        <lane id="-1111016141#1_0" index="0" disallow="tram rail_urban rail rail_electric rail_fast ship container cable_car subway aircraft wheelchair scooter drone" speed="13.89" length="52.50" shape="1542.47,911.07 1542.59,909.19 1542.84,905.55 1543.71,892.59 1542.69,889.53 1545.03,884.74 1545.06,879.10 1546.47,873.13 1546.34,872.87"/>
    </edge>
    <edge id="-1136905619" from="103013117" to="12088976036" priority="3" type="highway.residential">
        <lane id="-1136905619_0" index="0" disallow="tram rail_urban rail rail_electric rail_fast ship container cable_car subway aircraft wheelchair scooter drone" speed="13.89" length="51.43" shape="277.01,346.46 316.79,338.79"/>
    </edge>
    <edge id="-11552979#0" from="84783436" to="84782085" priority="3" type="highway.residential">
        <lane id="-11552979#0_0" index="0" disallow="tram rail_urban rail rail_electric rail_fast ship container cable_car subway aircraft wheelchair scooter drone" speed="13.89" length="13.12" shape="537.01,498.42 537.05,498.13"/>
    </edge>
    <edge id="-11552979#1" from="6659194063" to="84783436" priority="3" type="highway.residential">
        <lane id="-11552979#1_0" index="0" disallow="tram rail_urban rail rail_electric rail_fast ship container cable_car subway aircraft wheelchair scooter drone" speed="13.89" length="98.50" shape="522.13,579.85 534.58,512.57"/>
    </edge>
    <edge id="-11553623#0" from="8299505465" to="103017231" priority="3" type="highway.residential" shape="602.54,1346.07 619.25,1362.57 655.12,1397.98 671.13,1413.78">
        <lane id="-11553623#0_0" index="0" disallow="tram rail_urban rail rail_electric rail_fast ship container cable_car subway aircraft wheelchair scooter drone" speed="13.89" length="92.33" shape="607.10,1348.33 620.37,1361.43 656.24,1396.84 666.36,1406.83"/>
    </edge>
    <edge id="-11553623#1" from="5689634526" to="8299505465" priority="3" type="highway.residential">
        <lane id="-11553623#1_0" index="0" disallow="tram rail_urban rail rail_electric rail_fast ship container cable_car subway aircraft wheelchair scooter drone" speed="13.89" length="18.75" shape="593.44,1334.84 600.22,1341.54"/>
    </edge>
    <edge id="-11553623#2" from="8299505452" to="5689634526" priority="3" type="highway.residential">
        <lane id="-11553623#2_0" index="0" disallow="tram rail_urban rail rail_electric rail_fast ship container cable_car subway aircraft wheelchair scooter drone" speed="13.89" length="42.55" shape="562.46,1306.23 586.65,1328.39"/>
    </edge>
    <edge id="-11553623#3" from="8299505449" to="8299505452" priority="3" type="highway.residential">
        <lane id="-11553623#3_0" index="0" disallow="tram rail_urban rail rail_electric rail_fast ship container cable_car subway aircraft wheelchair scooter drone" speed="13.89" length="33.39" shape="537.77,1283.61 555.52,1299.88"/>
    </edge>
    <edge id="-11553623#4" from="8299505447" to="8299505449" priority="3" type="highway.residential">
        <lane id="-11553623#4_0" index="0" disallow="tram rail_urban rail rail_electric rail_fast ship container cable_car subway aircraft wheelchair scooter drone" speed="13.89" length="12.04" shape="529.03,1275.60 530.84,1277.26"/>
    </edge>
    <edge id="-11553623#5" from="103020673" to="8299505447" priority="3" type="highway.residential" shape="502.43,1253.31 506.05,1256.72 524.33,1273.46">
        <lane id="-11553623#5_0" index="0" disallow="tram rail_urban rail rail_electric rail_fast ship container cable_car subway aircraft wheelchair scooter drone" speed="13.89" length="29.76" shape="509.44,1257.66 522.09,1269.24"/>
    </edge>
    <edge id="-11553953#0" from="5689634529" to="103015872" priority="3" type="highway.residential" shape="352.32,1268.40 327.16,1238.08 320.86,1229.49">
        <lane id="-11553953#0_0" index="0" disallow="tram rail_urban rail rail_electric rail_fast ship container cable_car subway aircraft wheelchair scooter drone" speed="13.89" length="50.05" shape="347.55,1265.15 325.90,1239.07 323.49,1235.78"/>
    </edge>
    <edge id="-11553953#1" from="2584306178" to="5689634529" priority="3" type="highway.residential">
        <lane id="-11553953#1_0" index="0" disallow="tram rail_urban rail rail_electric rail_fast ship container cable_car subway aircraft wheelchair scooter drone" speed="13.89" length="18.06" shape="358.58,1279.72 353.50,1272.73"/>
    </edge>
    <edge id="-11553953#2" from="8299486014" to="2584306178" priority="3" type="highway.residential">
        <lane id="-11553953#2_0" index="0" disallow="tram rail_urban rail rail_electric rail_fast ship container cable_car subway aircraft wheelchair scooter drone" speed="13.89" length="21.10" shape="372.03,1296.67 365.23,1288.34"/>
    </edge>
    <edge id="-11553953#3" from="103020182" to="8299486014" priority="3" type="highway.residential">
        <lane id="-11553953#3_0" index="0" disallow="tram rail_urban rail rail_electric rail_fast ship container cable_car subway aircraft wheelchair scooter drone" speed="13.89" length="39.97" shape="397.03,1324.62 378.11,1303.74"/>
    </edge>
    <edge id="-11553953#4" from="8299485974" to="103020182" priority="3" type="highway.residential">
        <lane id="-11553953#4_0" index="0" disallow="tram rail_urban rail rail_electric rail_fast ship container cable_car subway aircraft wheelchair scooter drone" speed="13.89" length="24.27" shape="414.30,1345.53 406.97,1336.35"/>
    </edge>
    <edge id="-11553953#5" from="103019804" to="8299485974" priority="3" type="highway.residential" shape="504.47,1575.09 502.59,1568.30 494.45,1537.79 488.70,1516.24 485.01,1502.40 477.81,1475.42 469.98,1462.43 466.46,1453.35 462.06,1442.17 452.08,1413.70 445.88,1399.10 431.97,1373.24 427.22,1364.94 418.27,1347.93">
        <lane id="-11553953#5_0" index="0" disallow="tram rail_urban rail rail_electric rail_fast ship container cable_car subway aircraft wheelchair scooter drone" speed="13.89" length="244.28" shape="502.93,1575.52 501.04,1568.72 492.90,1538.21 487.16,1516.65 483.47,1502.82 476.32,1476.06 468.54,1463.14 464.97,1453.93 460.56,1442.73 450.58,1414.28 444.43,1399.80 430.58,1374.02 425.82,1365.71 418.93,1352.63"/>
    </edge>
    <edge id="-11553980#0" from="8299485979" to="103020400" priority="3" type="highway.residential" shape="493.15,1323.77 471.36,1284.67 464.54,1273.90">
        <lane id="-11553980#0_0" index="0" disallow="tram rail_urban rail rail_electric rail_fast ship container cable_car subway aircraft wheelchair scooter drone" speed="13.89" length="57.51" shape="489.43,1320.38 469.98,1285.49 467.15,1281.01"/>
    </edge>
    <edge id="-11553980#1" from="8299485983" to="8299485979" priority="3" type="highway.residential">
        <lane id="-11553980#1_0" index="0" disallow="tram rail_urban rail rail_electric rail_fast ship container cable_car subway aircraft wheelchair scooter drone" speed="13.89" length="23.50" shape="502.24,1340.36 494.25,1328.31"/>
    </edge>
    <edge id="-11553980#2" from="103017739" to="8299485983" priority="3" type="highway.residential" shape="557.27,1434.77 523.83,1376.22 511.24,1352.50 506.15,1343.35">
        <lane id="-11553980#2_0" index="0" disallow="tram rail_urban rail rail_electric rail_fast ship container cable_car subway aircraft wheelchair scooter drone" speed="13.89" length="104.75" shape="555.88,1435.56 522.43,1376.99 509.84,1353.26 506.95,1348.07"/>
    </edge>
    <edge id="-1155970863" from="10750129980" to="9458164133" priority="1" type="highway.path" shape="1791.16,1160.26 1802.29,1164.07 1816.06,1167.99 1826.84,1170.87 1840.17,1175.26 1853.25,1179.81 1863.62,1183.42 1879.83,1188.44">
        <lane id="-1155970863_0" index="0" allow="pedestrian bicycle" speed="5.56" length="93.08" width="2.00" shape="1791.48,1159.32 1802.59,1163.12 1816.32,1167.02 1827.13,1169.91 1840.49,1174.31 1853.58,1178.87 1863.93,1182.47 1876.73,1186.43"/>
    </edge>
    <edge id="-1155970864" from="10750129986" to="10750129982" priority="1" type="highway.path" shape="1835.78,1099.68 1857.01,1106.50 1878.09,1113.11 1897.07,1119.57 1906.08,1122.43">
        <lane id="-1155970864_0" index="0" allow="pedestrian bicycle" speed="5.56" length="73.89" width="2.00" shape="1836.09,1098.73 1857.31,1105.55 1878.40,1112.16 1897.38,1118.62 1902.89,1120.37"/>
    </edge>
    <edge id="-1155970865" from="10750129992" to="5009273758" priority="1" type="highway.path" shape="1924.35,1239.86 1918.65,1239.83 1913.48,1245.47 1907.75,1249.84 1902.12,1252.09 1895.97,1252.51 1887.15,1250.27 1875.92,1247.02">
        <lane id="-1155970865_0" index="0" allow="pedestrian bicycle" speed="5.56" length="53.57" width="2.00" shape="1924.35,1240.86 1919.09,1240.84 1914.15,1246.21 1908.24,1250.71 1902.35,1253.07 1895.88,1253.51 1886.89,1251.23 1879.44,1249.08"/>
    </edge>
    <edge id="-1155970870#0" from="9458164133" to="11367901735" priority="1" type="highway.path">
        <lane id="-1155970870#0_0" index="0" allow="pedestrian bicycle" speed="5.56" length="4.78" width="2.00" shape="1879.87,1191.42 1879.80,1191.61"/>
    </edge>
    <edge id="-1155970870#1" from="10750129982" to="9458164133" priority="1" type="highway.path" shape="1906.08,1122.43 1901.38,1133.96 1892.03,1158.89 1884.77,1176.28 1879.83,1188.44">
        <lane id="-1155970870#1_0" index="0" allow="pedestrian bicycle" speed="5.56" length="71.05" width="2.00" shape="1905.62,1126.20 1902.31,1134.32 1892.96,1159.26 1885.70,1176.66 1882.02,1185.73"/>
    </edge>
    <edge id="-1155970870#2" from="11367901767" to="10750129982" priority="1" type="highway.path" shape="1954.52,953.93 1951.54,962.04 1947.89,974.18 1947.31,978.93 1945.99,984.23 1943.75,991.07 1940.48,1000.19 1938.41,1008.13 1937.92,1014.71 1937.98,1021.75 1938.59,1028.15 1938.18,1033.82 1937.34,1038.39 1936.28,1045.33 1933.39,1052.62 1929.00,1065.76 1925.08,1077.17 1921.81,1084.29 1911.00,1112.06 1906.08,1122.43">
        <lane id="-1155970870#2_0" index="0" allow="pedestrian bicycle" speed="5.56" length="176.95" width="2.00" shape="1954.27,957.52 1952.49,962.36 1948.87,974.38 1948.30,979.12 1946.96,984.51 1944.70,991.39 1941.44,1000.49 1939.40,1008.30 1938.92,1014.75 1938.98,1021.70 1939.59,1028.14 1939.18,1033.95 1938.32,1038.55 1937.25,1045.59 1934.33,1052.96 1929.95,1066.08 1926.01,1077.54 1922.74,1084.68 1911.92,1112.46 1908.38,1119.92"/>
    </edge>
    <edge id="-1155970870#3" from="11367913231" to="11367901767" priority="1" type="highway.path" shape="1898.00,808.58 1908.00,787.30 1916.18,771.00 1920.56,758.27 1925.78,747.91 1931.54,739.22 1937.73,727.20 1943.79,715.03 1951.80,702.47 1961.48,690.74 1967.52,682.74 1976.37,669.77 1989.54,654.73 1997.96,644.38 2005.27,632.79 2011.31,624.51 2023.95,606.02 2032.51,594.84 2039.10,586.56 2043.18,580.48 2046.01,574.55 2050.64,567.64 2054.28,564.20 2057.77,562.96 2061.80,564.38 2071.39,569.37 2077.70,574.97 2089.37,584.38 2093.26,586.92 2097.36,590.09 2094.05,597.63 2086.26,611.44 2081.26,618.04 2076.49,619.39 2072.54,620.47 2059.18,625.42 2056.87,627.06 2053.53,632.71 2050.20,637.90 2045.80,651.04 2039.95,661.98 2034.37,674.74 2029.58,692.17 2022.84,714.63 2013.69,740.17 2006.06,758.13 2002.14,767.80 1998.56,784.42 1995.43,801.59 1992.51,816.11 1989.11,831.17 1985.83,841.94 1985.08,846.23 1985.13,852.26 1985.18,860.86 1984.49,868.72 1983.80,876.94 1983.03,885.07 1981.62,891.28 1979.75,897.39 1967.49,919.44 1964.33,926.10 1958.62,943.71 1954.52,953.93">
        <lane id="-1155970870#3_0" index="0" allow="pedestrian bicycle" speed="5.56" length="747.95" width="2.00" shape="1897.09,808.15 1907.10,786.87 1915.25,770.61 1919.63,757.88 1924.91,747.40 1930.67,738.71 1936.84,726.74 1942.91,714.54 1950.99,701.88 1960.69,690.12 1966.70,682.15 1975.58,669.16 1988.78,654.09 1997.15,643.80 2004.44,632.23 2010.49,623.93 2023.14,605.43 2031.72,594.22 2038.30,585.97 2042.31,579.99 2045.13,574.05 2049.87,566.99 2053.75,563.32 2057.77,561.90 2062.20,563.46 2071.96,568.54 2078.34,574.21 2089.96,583.57 2093.84,586.10 2098.59,589.77 2094.94,598.08 2087.10,611.99 2081.85,618.91 2076.76,620.36 2072.84,621.42 2059.65,626.31 2057.63,627.75 2054.38,633.23 2051.10,638.34 2046.72,651.44 2040.86,662.41 2035.31,675.08 2030.54,692.45 2023.79,714.94 2014.62,740.53 2006.98,758.52 2003.10,768.09 1999.54,784.61 1996.42,801.78 1993.49,816.31 1990.08,831.43 1986.81,842.17 1986.08,846.31 1986.13,852.25 1986.18,860.90 1985.49,868.80 1984.80,877.02 1984.02,885.23 1982.58,891.54 1980.67,897.78 1968.38,919.90 1965.26,926.47 1959.56,944.05 1956.75,951.06"/>
    </edge>
    <edge id="-11705690" from="104765597" to="309635879" priority="3" type="highway.residential" shape="549.07,278.46 521.97,344.96 519.68,348.55 515.75,350.73 481.25,360.32 476.73,361.45">
        <lane id="-11705690_0" index="0" disallow="tram rail_urban rail rail_electric rail_fast ship container cable_car subway aircraft wheelchair scooter drone" speed="13.89" length="121.03" shape="550.55,279.07 523.39,345.70 520.81,349.75 516.36,352.22 484.29,361.14"/>
    </edge>
    <edge id="-11710598#0" from="317968604" to="1497603134" priority="3" type="highway.residential">
        <lane id="-11710598#0_0" index="0" disallow="tram rail_urban rail rail_electric rail_fast ship container cable_car subway aircraft wheelchair scooter drone" speed="13.89" length="62.60" shape="1034.82,934.85 1041.14,884.60"/>
    </edge>
    <edge id="-11710598#1" from="610740400" to="317968604" priority="3" type="highway.residential">
        <lane id="-11710598#1_0" index="0" disallow="tram rail_urban rail rail_electric rail_fast ship container cable_car subway aircraft wheelchair scooter drone" speed="13.89" length="53.21" shape="1025.10,983.56 1033.34,943.75"/>
    </edge>
    <edge id="-11710676" from="104824953" to="1497603137" priority="3" type="highway.residential" shape="1226.02,845.83 1188.54,892.12 1182.81,902.68">
        <lane id="-11710676_0" index="0" disallow="tram rail_urban rail rail_electric rail_fast ship container cable_car subway aircraft wheelchair scooter drone" speed="13.89" length="71.58" shape="1222.87,852.26 1189.87,893.01 1188.24,896.02"/>
    </edge>
    <edge id="-11710752#0" from="2259067321" to="104825779" priority="3" type="highway.residential">
        <lane id="-11710752#0_0" index="0" disallow="tram rail_urban rail rail_electric rail_fast ship container cable_car subway aircraft wheelchair scooter drone" speed="13.89" length="71.29" shape="701.50,636.96 692.21,581.01"/>
    </edge>
    <edge id="-11710752#1" from="84782624" to="2259067321" priority="3" type="highway.residential" shape="711.60,696.96 710.59,689.51 704.26,643.85">
        <lane id="-11710752#1_0" index="0" disallow="tram rail_urban rail rail_electric rail_fast ship container cable_car subway aircraft wheelchair scooter drone" speed="13.89" length="53.62" shape="709.27,691.74 709.00,689.73 703.65,651.07"/>
    </edge>
    <edge id="-11710954" from="104827478" to="103013117" priority="3" type="highway.residential" shape="0.00,401.74 4.30,400.88 50.25,392.22 91.58,384.38 269.74,349.48">
        <lane id="-11710954_0" index="0" disallow="tram rail_urban rail rail_electric rail_fast ship container cable_car subway aircraft wheelchair scooter drone" speed="13.89" length="274.76" shape="-0.32,400.17 3.99,399.31 49.96,390.65 91.28,382.81 261.97,349.38"/>
    </edge>
    <edge id="-1173653403" from="10904955229" to="10904955228" priority="1" type="highway.service">
        <lane id="-1173653403_0" index="0" allow="pedestrian delivery bicycle" speed="5.56" length="44.37" shape="576.63,663.94 538.00,672.64"/>
    </edge>
    <edge id="-1174202281" from="10910541374" to="10910541373" priority="1" type="highway.service" shape="1243.68,657.92 1247.96,633.09 1249.74,624.04">
        <lane id="-1174202281_0" index="0" allow="pedestrian delivery bicycle" speed="5.56" length="34.42" shape="1242.10,657.65 1246.38,632.80 1247.25,628.41"/>
    </edge>
    <edge id="-1185425746#0" from="2072129567" to="5406185075" priority="1" type="highway.service" shape="295.69,1090.49 207.44,1109.11 134.95,1124.33 126.74,1126.06">
        <lane id="-1185425746#0_0" index="0" allow="pedestrian delivery bicycle" speed="5.56" length="172.66" shape="291.45,1093.02 207.77,1110.67 135.28,1125.90 127.07,1127.63"/>
    </edge>
    <edge id="-1185425746#1" from="2072129526" to="2072129567" priority="1" type="highway.service">
        <lane id="-1185425746#1_0" index="0" allow="pedestrian delivery bicycle" speed="5.56" length="40.73" shape="331.31,1084.59 300.65,1091.08"/>
    </edge>
    <edge id="-1185425746#2" from="2072129546" to="2072129526" priority="1" type="highway.service">
        <lane id="-1185425746#2_0" index="0" allow="pedestrian delivery bicycle" speed="5.56" length="25.99" shape="356.62,1079.24 340.50,1082.64"/>
    </edge>
    <edge id="-1185425746#3" from="2294357128" to="2072129546" priority="1" type="highway.service" shape="390.58,1043.26 393.45,1060.46 389.50,1068.75 381.64,1072.29 360.96,1076.68">
        <lane id="-1185425746#3_0" index="0" allow="pedestrian delivery bicycle" speed="5.56" length="56.38" shape="392.16,1042.99 395.11,1060.69 390.69,1069.97 382.14,1073.82 365.82,1077.29"/>
    </edge>
    <edge id="-1185425747" from="11011500807" to="11011500806" priority="1" type="highway.service">
        <lane id="-1185425747_0" index="0" allow="pedestrian delivery bicycle" speed="5.56" length="22.62" shape="405.06,1041.33 405.25,1041.30"/>
    </edge>
    <edge id="-1185425748#0" from="11011500806" to="11011500805" priority="1" type="highway.service" shape="424.75,1039.61 425.59,1044.09 422.52,1044.70 408.17,1047.53 411.99,1067.54">
        <lane id="-1185425748#0_0" index="0" allow="pedestrian delivery bicycle" speed="5.56" length="38.21" shape="410.77,1048.65 410.04,1048.79 413.56,1067.24"/>
    </edge>
    <edge id="-1185425748#1" from="11011494702" to="11011500806" priority="1" type="highway.service">
        <lane id="-1185425748#1_0" index="0" allow="pedestrian delivery bicycle" speed="5.56" length="9.65" shape="425.14,1032.99 425.45,1034.64"/>
    </edge>
    <edge id="-11855906#0" from="4023188015" to="1954877847" priority="3" type="highway.residential">
        <lane id="-11855906#0_0" index="0" disallow="tram rail_urban rail rail_electric rail_fast ship container cable_car subway aircraft wheelchair scooter drone" speed="13.89" length="131.08" shape="665.56,929.50 668.32,1044.31"/>
    </edge>
    <edge id="-11855906#1" from="84782318" to="4023188015" priority="3" type="highway.residential">
        <lane id="-11855906#1_0" index="0" disallow="tram rail_urban rail rail_electric rail_fast ship container cable_car subway aircraft wheelchair scooter drone" speed="13.89" length="106.30" shape="663.86,823.90 665.28,915.08"/>
    </edge>
    <edge id="-11856018" from="84783147" to="104825779" priority="3" type="highway.residential">
        <lane id="-11856018_0" index="0" disallow="tram rail_urban rail rail_electric rail_fast ship container cable_car subway aircraft wheelchair scooter drone" speed="13.89" length="70.97" shape="759.89,566.43 700.05,574.17"/>
    </edge>
    <edge id="-1203870127#0" from="12401920421" to="1819499864" priority="3" type="highway.residential">
        <lane id="-1203870127#0_0" index="0" disallow="tram rail_urban rail rail_electric rail_fast ship container cable_car subway aircraft wheelchair scooter drone" speed="13.89" length="19.98" shape="1299.91,936.47 1293.60,943.98"/>
    </edge>
    <edge id="-1203870127#1" from="12401920420" to="12401920421" priority="3" type="highway.residential">
        <lane id="-1203870127#1_0" index="0" disallow="tram rail_urban rail rail_electric rail_fast ship container cable_car subway aircraft wheelchair scooter drone" speed="13.89" length="11.70" shape="1307.63,927.31 1303.14,932.64"/>
    </edge>
    <edge id="-1203870127#2" from="4023168483" to="12401920420" priority="3" type="highway.residential">
        <lane id="-1203870127#2_0" index="0" disallow="tram rail_urban rail rail_electric rail_fast ship container cable_car subway aircraft wheelchair scooter drone" speed="13.89" length="40.16" shape="1330.39,900.30 1310.86,923.49"/>
    </edge>
    <edge id="-1203870127#3" from="4022974047" to="4023168483" priority="3" type="highway.residential">
        <lane id="-1203870127#3_0" index="0" disallow="tram rail_urban rail rail_electric rail_fast ship container cable_car subway aircraft wheelchair scooter drone" speed="13.89" length="51.11" shape="1364.44,860.98 1340.08,888.98"/>
    </edge>
    <edge id="-1207654358" from="1497570435" to="309674297" priority="3" type="highway.residential" shape="1293.82,271.97 1294.29,297.08 1295.25,322.49 1295.66,337.73">
        <lane id="-1207654358_0" index="0" disallow="tram rail_urban rail rail_electric rail_fast ship container cable_car subway aircraft wheelchair scooter drone" speed="13.89" length="65.80" shape="1295.42,271.94 1295.89,297.04 1296.85,322.44 1297.11,332.09"/>
    </edge>
    <edge id="-1207738747" from="11190404312" to="11190404309" priority="3" type="highway.residential" shape="1528.71,828.19 1526.11,840.79 1522.69,846.50 1519.67,854.61 1519.19,855.92">