<?xml version="1.0" encoding="UTF-8"?>

<!-- generated on 2025-05-05 21:06:31 by Eclipse SUMO polyconvert Version 1.22.0
<polyconvertConfiguration xmlns:xsi="http://www.w3.org/2001/XMLSchema-instance" xsi:noNamespaceSchemaLocation="http://sumo.dlr.de/xsd/polyconvertConfiguration.xsd">

    <input>
        <net-file value="city-area.net.xml"/>
        <osm-files value="map.osm"/>
    </input>

    <output>
        <output-file value="map.poly.xml"/>
    </output>

</polyconvertConfiguration>
-->

<additional xmlns:xsi="http://www.w3.org/2001/XMLSchema-instance" xsi:noNamespaceSchemaLocation="http://sumo.dlr.de/xsd/additional_file.xsd">
    <location netOffset="-587355.87,-2325611.00" convBoundary="-4486.56,-1081.26,2644.42,5196.52" origBoundary="105.797619,21.019391,105.866122,21.076170" projParameter="+proj=utm +zone=48 +ellps=WGS84 +datum=WGS84 +units=m +no_defs"/>

    <poly id="1040732515" type="building" color="255,230,230" fill="1" layer="-1.00" shape="272.785847,1318.856163 285.394552,1331.817650 293.864902,1323.660643 281.245747,1310.710164 272.785847,1318.856163"/>
    <poly id="1040732516" type="building" color="255,230,230" fill="1" layer="-1.00" shape="843.029476,1292.094397 852.078508,1294.367315 853.787540,1287.591387 844.748836,1285.329592 843.029476,1292.094397"/>
    <poly id="1040732519" type="building" color="255,230,230" fill="1" layer="-1.00" shape="625.108503,1291.501075 623.421599,1290.208173 620.607184,1293.823721 628.244771,1299.686302 631.048738,1296.081769 633.475990,1292.973321 627.535755,1288.392626 625.108503,1291.501075"/>
    <poly id="1040732523" type="building" color="255,230,230" fill="1" layer="-1.00" shape="325.211761,1324.280200 317.339703,1331.300295 328.011186,1343.133650 335.883243,1336.113559 325.211761,1324.280200"/>
    <poly id="1042189407" type="building" color="255,230,230" fill="1" layer="-1.00" shape="621.177517,487.052139 627.829130,486.877120 627.593653,478.375238 620.942037,478.550257 621.177517,487.052139"/>
    <poly id="1042189408" type="building" color="255,230,230" fill="1" layer="-1.00" shape="542.179622,655.727258 549.419649,654.315653 546.433939,639.257693 539.204298,640.669355 542.179622,655.727258"/>
    <poly id="1042189409" type="building" color="255,230,230" fill="1" layer="-1.00" shape="558.158252,634.848150 556.425626,624.523093 549.467559,625.670546 551.210522,636.006724 558.158252,634.848150"/>
    <poly id="1042189410" type="building" color="255,230,230" fill="1" layer="-1.00" shape="833.144255,796.414513 834.747606,784.114820 829.420441,783.422380 827.817035,795.733141 833.144255,796.414513"/>
    <poly id="1042189411" type="building" color="255,230,230" fill="1" layer="-1.00" shape="1005.203374,888.734437 1011.122442,889.496501 1012.509308,878.844879 1006.590236,878.082815 1005.203374,888.734437"/>
    <poly id="1042189412" type="building" color="255,230,230" fill="1" layer="-1.00" shape="1137.199082,927.038152 1142.413543,927.420173 1142.906962,920.637784 1137.692440,920.266832 1137.199082,927.038152"/>
    <poly id="1042189413" type="building" color="255,230,230" fill="1" layer="-1.00" shape="1064.165865,931.352712 1068.474762,932.017663 1070.260894,920.549101 1065.951994,919.884149 1064.165865,931.352712"/>
    <poly id="1042189414" type="building" color="255,230,230" fill="1" layer="-1.00" shape="665.192234,544.687078 673.018814,544.374422 672.816697,539.381440 664.990115,539.694096 665.192234,544.687078"/>
    <poly id="1042189416" type="building" color="255,230,230" fill="1" layer="-1.00" shape="821.676342,908.953814 828.702231,912.621656 831.179497,907.941768 824.143215,904.273869 821.676342,908.953814"/>
    <poly id="1042189418" type="building" color="255,230,230" fill="1" layer="-1.00" shape="1269.899978,1006.333578 1272.264515,1003.324500 1261.667687,995.099272 1259.303152,998.108351 1269.899978,1006.333578"/>
    <poly id="1042189419" type="building" color="255,230,230" fill="1" layer="-1.00" shape="1123.283160,929.321499 1128.714181,930.014590 1130.155734,918.865182 1124.724710,918.172090 1123.283160,929.321499"/>
    <poly id="1042189420" type="building" color="255,230,230" fill="1" layer="-1.00" shape="1126.007140,911.526734 1131.095495,912.173723 1132.840407,898.701538 1127.752047,898.054548 1126.007140,911.526734"/>
    <poly id="1042189421" type="building" color="255,230,230" fill="1" layer="-1.00" shape="1160.039994,924.990620 1164.246042,925.455814 1165.206311,916.871743 1160.989810,916.417562 1160.039994,924.990620"/>
    <poly id="1042189422" type="building" color="255,230,230" fill="1" layer="-1.00" shape="777.996649,526.536012 781.747408,526.655560 782.009093,518.477302 778.268782,518.346741 777.996649,526.536012"/>
    <poly id="1042189424" type="building" color="255,230,230" fill="1" layer="-1.00" shape="831.926168,662.002741 836.374879,661.793957 835.879406,651.397963 831.430692,651.606747 831.926168,662.002741"/>
    <poly id="1042189425" type="building" color="255,230,230" fill="1" layer="-1.00" shape="824.848872,675.800785 829.870219,675.384743 828.161795,654.677488 823.140442,655.093532 824.848872,675.800785"/>
    <poly id="1042189426" type="building" color="255,230,230" fill="1" layer="-1.00" shape="858.414700,642.397334 863.965543,642.072666 863.584509,635.562337 858.033663,635.887005 858.414700,642.397334"/>
    <poly id="1042189427" type="building" color="255,230,230" fill="1" layer="-1.00" shape="1126.125125,605.050294 1131.786575,605.423623 1132.475660,595.078208 1126.814207,594.704878 1126.125125,605.050294"/>
    <poly id="1042189428" type="building" color="255,230,230" fill="1" layer="-1.00" shape="1160.028290,648.774871 1161.196618,644.043768 1149.002355,641.067661 1147.834031,645.798766 1160.028290,648.774871"/>
    <poly id="1042189430" type="building" color="255,230,230" fill="1" layer="-1.00" shape="581.524431,882.630485 584.004989,889.074459 586.144159,891.310579 592.469609,889.905215 595.638204,888.095711 599.601575,881.420267 598.506452,876.300795 598.959611,873.148666 582.735021,875.774412 581.524431,882.630485"/>
    <poly id="1042189432" type="building" color="255,230,230" fill="1" layer="-1.00" shape="585.568142,760.864834 584.351232,747.354769 572.353816,748.409077 573.570676,761.930209 585.568142,760.864834"/>
    <poly id="1042189433" type="building" color="255,230,230" fill="1" layer="-1.00" shape="560.995922,756.240727 569.036737,754.700555 566.346075,740.839554 558.305255,742.379728 560.995922,756.240727"/>
    <poly id="1042189434" type="building" color="255,230,230" fill="1" layer="-1.00" shape="597.302363,758.491984 595.536307,738.802763 586.304245,739.628219 588.059921,759.317384 597.302363,758.491984"/>
    <poly id="1042189435" type="building" color="255,230,230" fill="1" layer="-1.00" shape="1044.080047,586.139389 1046.789864,580.741314 1036.881626,575.829414 1034.171811,581.227491 1044.080047,586.139389"/>
    <poly id="1042189437" type="building" color="255,230,230" fill="1" layer="-1.00" shape="732.188241,632.550612 740.863357,630.947478 737.871773,615.070374 742.979088,614.123471 741.756130,607.641880 727.983961,610.214112 732.188241,632.550612"/>
    <poly id="1042189438" type="building" color="255,230,230" fill="1" layer="-1.00" shape="536.309242,545.752424 551.831426,548.269764 553.345475,539.057703 537.823283,536.540362 536.309242,545.752424"/>
    <poly id="1042189439" type="building" color="255,230,230" fill="1" layer="-1.00" shape="609.171709,624.847040 614.777619,623.935948 613.307745,615.017982 607.701891,615.918006 609.171709,624.847040"/>
    <poly id="1042189440" type="building" color="255,230,230" fill="1" layer="-1.00" shape="604.743002,609.526838 611.960981,608.358650 610.662474,600.437761 603.444492,601.605950 604.743002,609.526838"/>
    <poly id="1044748198" type="building" color="255,230,230" fill="1" layer="-1.00" shape="1155.970633,507.551746 1160.516520,506.668385 1159.343072,500.674038 1154.797244,501.546331 1155.373724,504.515778 1155.970633,507.551746"/>
    <poly id="1044748199" type="building" color="255,230,230" fill="1" layer="-1.00" shape="1152.395736,517.317265 1157.680117,516.305021 1155.970633,507.551746 1155.373724,504.515778 1150.089340,505.528023 1152.395736,517.317265"/>
    <poly id="1046100183" type="building" color="255,230,230" fill="1" layer="-1.00" shape="1139.393463,776.761077 1148.459452,779.797965 1157.338482,753.612888 1148.262088,750.575939 1139.393463,776.761077"/>
    <poly id="1046100184" type="building" color="255,230,230" fill="1" layer="-1.00" shape="1122.072412,760.873837 1125.828727,761.890047 1130.905641,743.266629 1127.149322,742.250418 1122.072412,760.873837"/>
    <poly id="1046100185" type="building" color="255,230,230" fill="1" layer="-1.00" shape="1046.006835,690.603527 1050.892870,692.179168 1052.805081,686.300895 1047.919044,684.725253 1046.006835,690.603527"/>
    <poly id="1046100186" type="building" color="255,230,230" fill="1" layer="-1.00" shape="983.917350,694.467665 988.199398,696.283578 990.006730,690.581837 991.250899,689.160622 986.979241,687.344763 983.917350,694.467665"/>
    <poly id="1046122125" type="building" color="255,230,230" fill="1" layer="-1.00" shape="1254.613350,331.601498 1259.154146,331.681099 1259.383280,317.968392 1254.842480,317.888791 1254.613350,331.601498"/>
    <poly id="1046122126" type="building" color="255,230,230" fill="1" layer="-1.00" shape="1265.215178,331.193258 1269.227545,330.982255 1268.582718,319.412177 1264.580740,319.623235 1265.215178,331.193258"/>
    <poly id="1046122127" type="building" color="255,230,230" fill="1" layer="-1.00" shape="1257.312227,357.449908 1262.881656,357.557142 1263.071561,347.297612 1257.512461,347.201502 1257.312227,357.449908"/>
    <poly id="1046122128" type="building" color="255,230,230" fill="1" layer="-1.00" shape="1265.382528,420.461998 1271.628445,420.373617 1271.551735,415.281674 1265.295424,415.370000 1265.382528,420.461998"/>
    <poly id="1046122129" type="building" color="255,230,230" fill="1" layer="-1.00" shape="1260.878591,421.268076 1264.848838,421.156466 1264.550642,410.838984 1260.580393,410.950595 1260.878591,421.268076"/>
    <poly id="1046122130" type="building" color="255,230,230" fill="1" layer="-1.00" shape="1123.811309,362.836021 1130.429626,363.070560 1130.562827,359.529336 1123.944508,359.294797 1123.811309,362.836021"/>
    <poly id="1046122150" type="building" color="255,230,230" fill="1" layer="-1.00" shape="1068.224614,343.534916 1074.690017,343.215189 1074.719868,335.666602 1074.796380,315.466919 1074.794603,313.850902 1068.231712,314.911702 1068.224614,343.534916"/>
    <poly id="1046754164" type="building" color="255,230,230" fill="1" layer="-1.00" shape="1330.122693,424.438508 1334.321079,424.416682 1334.290748,418.428434 1330.092361,418.450259 1330.122693,424.438508"/>
    <poly id="1052286509" type="building" color="255,230,230" fill="1" layer="-1.00" shape="1078.235509,713.167019 1090.429499,675.266927 1118.524902,685.655190 1119.737081,686.336838 1107.820701,722.832687 1078.235509,713.167019"/>
    <poly id="1052445627" type="forest" color="140,196,107" fill="1" layer="-3.00" shape="1783.644468,854.758233 1807.540368,799.554918 1849.045559,758.724797 1869.742478,726.460569 1876.300694,699.211829 1900.175755,646.045139 1908.653394,627.097099 1906.976149,583.466840 1902.621553,573.902298 1888.492256,577.135766 1851.133619,610.085149 1832.617473,619.415986 1821.246057,635.426400 1812.602370,619.562943 1830.624385,607.429079 1874.257555,553.604882 1908.795610,523.440714 1948.660808,501.728477 1985.691360,437.165697 2025.201564,386.894809 2048.999918,330.772591 2081.732892,271.267316 2091.503534,253.499601 2034.839766,223.984200"/>
    <poly id="1052445627#1" type="forest" color="140,196,107" fill="1" layer="-4.00" shape="1783.644468,854.758233 1807.540368,799.554918 1849.045559,758.724797 1869.742478,726.460569 1876.300694,699.211829 1900.175755,646.045139 1908.653394,627.097099 1906.976149,583.466840 1902.621553,573.902298 1888.492256,577.135766 1851.133619,610.085149 1832.617473,619.415986 1821.246057,635.426400 1812.602370,619.562943 1830.624385,607.429079 1874.257555,553.604882 1908.795610,523.440714 1948.660808,501.728477 1985.691360,437.165697 2025.201564,386.894809 2048.999918,330.772591 2081.732892,271.267316 2091.503534,253.499601 2034.839766,223.984200"/>
    <poly id="1067825692" type="building" color="255,230,230" fill="1" layer="-1.00" shape="336.146276,763.705857 339.485370,763.059402 339.962579,765.176014 341.823702,774.804407 343.725684,784.565838 344.079426,786.449358 341.052365,787.042120 344.563937,804.869952 347.601327,804.288314 350.617065,819.589902 335.783546,822.477824 335.136068,819.153841 313.010607,823.464273 313.668538,826.777241 300.291320,829.385111 298.338181,819.468455 296.186057,817.708253 291.577789,818.624721 286.329248,812.885623 283.928143,811.046627 281.801067,814.378081 280.564671,816.308540 276.442664,813.696722 272.310264,811.084851 273.777196,808.790349 275.673676,805.834005 272.547174,803.614847 265.508452,800.378852 266.104763,795.688948 264.259223,794.904400 253.919493,796.908519 251.561841,784.875645 255.150609,784.175150 250.192166,758.923786 246.582611,759.624173 244.244853,747.757434 256.186558,745.440783 256.581115,747.468407 278.238527,743.255041 277.843972,741.227416 278.603351,741.076469 288.017363,739.244568 297.837046,737.337336 298.190699,737.272794 298.585427,739.267215 319.629136,735.172412 319.234410,733.177991 333.059001,730.483950 335.710458,743.935162 332.381751,744.581673 336.146276,763.705857"/>
    <poly id="1067825692#1" type="military" color="153,153,92" fill="1" layer="-2.00" shape="336.146276,763.705857 339.485370,763.059402 339.962579,765.176014 341.823702,774.804407 343.725684,784.565838 344.079426,786.449358 341.052365,787.042120 344.563937,804.869952 347.601327,804.288314 350.617065,819.589902 335.783546,822.477824 335.136068,819.153841 313.010607,823.464273 313.668538,826.777241 300.291320,829.385111 298.338181,819.468455 296.186057,817.708253 291.577789,818.624721 286.329248,812.885623 283.928143,811.046627 281.801067,814.378081 280.564671,816.308540 276.442664,813.696722 272.310264,811.084851 273.777196,808.790349 275.673676,805.834005 272.547174,803.614847 265.508452,800.378852 266.104763,795.688948 264.259223,794.904400 253.919493,796.908519 251.561841,784.875645 255.150609,784.175150 250.192166,758.923786 246.582611,759.624173 244.244853,747.757434 256.186558,745.440783 256.581115,747.468407 278.238527,743.255041 277.843972,741.227416 278.603351,741.076469 288.017363,739.244568 297.837046,737.337336 298.190699,737.272794 298.585427,739.267215 319.629136,735.172412 319.234410,733.177991 333.059001,730.483950 335.710458,743.935162 332.381751,744.581673 336.146276,763.705857"/>
    <poly id="1067825693" type="building" color="255,230,230" fill="1" layer="-1.00" shape="271.612407,781.893459 270.418877,775.710915 270.135584,774.259441 268.304483,764.841519 268.071800,763.644889 267.201839,759.157539 282.638501,756.195262 283.205027,759.109278 299.369780,756.018042 298.803257,753.104025 319.773741,749.097384 323.617547,768.952507 320.808992,769.491085 324.005367,786.011158 326.824310,785.472636 329.980281,801.771127 325.413395,802.721011 324.144265,802.979946 314.595198,804.811112 312.348535,805.208770 307.168687,806.133282 306.794686,804.150038 308.742076,801.393201 275.818487,778.429098 273.640798,781.505710 271.612407,781.893459"/>
    <poly id="1067825693#1" type="military" color="153,153,92" fill="1" layer="-2.00" shape="271.612407,781.893459 270.418877,775.710915 270.135584,774.259441 268.304483,764.841519 268.071800,763.644889 267.201839,759.157539 282.638501,756.195262 283.205027,759.109278 299.369780,756.018042 298.803257,753.104025 319.773741,749.097384 323.617547,768.952507 320.808992,769.491085 324.005367,786.011158 326.824310,785.472636 329.980281,801.771127 325.413395,802.721011 324.144265,802.979946 314.595198,804.811112 312.348535,805.208770 307.168687,806.133282 306.794686,804.150038 308.742076,801.393201 275.818487,778.429098 273.640798,781.505710 271.612407,781.893459"/>
    <poly id="1067831587" type="building" color="255,230,230" fill="1" layer="-1.00" shape="147.557223,971.229647 163.305688,968.213570 162.526545,964.235857 155.505139,965.604504 152.499821,950.269806 181.302990,944.699400 184.297950,960.022982 178.368773,961.176014 179.147854,965.164796 195.062764,962.116422 194.759271,960.554157 191.289379,942.682305 190.044989,936.289196 185.592977,937.140106 186.179885,940.131707 147.370185,947.597359 146.783328,944.594692 142.539319,945.413506 143.834397,952.050386 147.253784,969.656315 147.557223,971.229647"/>
    <poly id="1067831587#1" type="military" color="153,153,92" fill="1" layer="-2.00" shape="147.557223,971.229647 163.305688,968.213570 162.526545,964.235857 155.505139,965.604504 152.499821,950.269806 181.302990,944.699400 184.297950,960.022982 178.368773,961.176014 179.147854,965.164796 195.062764,962.116422 194.759271,960.554157 191.289379,942.682305 190.044989,936.289196 185.592977,937.140106 186.179885,940.131707 147.370185,947.597359 146.783328,944.594692 142.539319,945.413506 143.834397,952.050386 147.253784,969.656315 147.557223,971.229647"/>
    <poly id="1068978778" type="leisure" color="207,245,201" fill="1" layer="-2.00" shape="185.905426,1074.789953 180.162301,1046.612369 236.657736,1035.233407 242.400770,1063.411014 185.905426,1074.789953"/>
    <poly id="1068978778#1" type="sport" color="79,230,125" fill="1" layer="-2.00" shape="185.905426,1074.789953 180.162301,1046.612369 236.657736,1035.233407 242.400770,1063.411014 185.905426,1074.789953"/>
    <poly id="1068978779" type="leisure" color="207,245,201" fill="1" layer="-2.00" shape="250.095789,1064.348218 241.369032,1020.703180 273.948751,1014.267407 282.675427,1057.912464 277.318311,1058.968867 257.325276,1062.925369 250.095789,1064.348218"/>
    <poly id="1068978779#1" type="sport" color="79,230,125" fill="1" layer="-2.00" shape="250.095789,1064.348218 241.369032,1020.703180 273.948751,1014.267407 282.675427,1057.912464 277.318311,1058.968867 257.325276,1062.925369 250.095789,1064.348218"/>
    <poly id="1097435932" type="building" color="255,230,230" fill="1" layer="-1.00" shape="1241.327174,904.538351 1242.136584,895.023718 1244.958705,897.783798 1244.360091,904.798063 1241.327174,904.538351"/>
    <poly id="1097435933" type="building" color="255,230,230" fill="1" layer="-1.00" shape="1237.911145,904.022016 1239.010618,894.674961 1241.492628,894.964935 1240.403603,904.300977 1237.911145,904.022016"/>
    <poly id="1097435934" type="building" color="255,230,230" fill="1" layer="-1.00" shape="1231.608223,901.199068 1232.261050,891.816422 1238.441722,892.236840 1237.878880,900.336015 1234.212043,900.083986 1234.122055,901.367457 1231.608223,901.199068"/>
    <poly id="1097435935" type="building" color="255,230,230" fill="1" layer="-1.00" shape="1228.378761,900.772280 1228.849083,892.484445 1231.633146,892.643209 1231.162822,900.931044 1228.378761,900.772280"/>
    <poly id="1097435936" type="building" color="255,230,230" fill="1" layer="-1.00" shape="1225.805641,901.976076 1226.022036,892.591098 1228.401376,892.648082 1228.174588,902.033005 1225.805641,901.976076"/>
    <poly id="1097435937" type="building" color="255,230,230" fill="1" layer="-1.00" shape="1221.492143,900.226341 1221.797608,893.620046 1223.013078,893.681881 1223.177532,890.129754 1226.034511,890.255700 1225.543748,900.425079 1221.492143,900.226341"/>
    <poly id="1114717011" type="building" color="255,230,230" fill="1" layer="-1.00" shape="391.596043,337.351716 415.105998,332.716635 410.551753,309.647869 398.318339,312.040358 401.334610,327.253399 389.985425,329.473476 391.596043,337.351716"/>
    <poly id="1114717020" type="building" color="255,230,230" fill="1" layer="-1.00" shape="370.053592,423.860042 389.762902,418.684608 388.342470,412.179869 367.646785,417.195129 370.053592,423.860042"/>
    <poly id="1114717021" type="building" color="255,230,230" fill="1" layer="-1.00" shape="350.622713,335.109479 380.427181,329.057655 377.286603,313.766481 347.482110,319.818311 350.622713,335.109479"/>
    <poly id="1114717022" type="building" color="255,230,230" fill="1" layer="-1.00" shape="360.672917,352.540204 379.219720,349.085297 376.510495,334.759366 357.963677,338.214277 360.672917,352.540204"/>
    <poly id="1114717023" type="building" color="255,230,230" fill="1" layer="-1.00" shape="338.961128,386.593934 375.267715,379.148643 369.522038,351.458013 333.215394,358.903319 338.961128,386.593934"/>
    <poly id="1114720177" type="building" color="255,230,230" fill="1" layer="-1.00" shape="858.917380,592.824014 870.445587,594.047531 876.383665,538.515047 864.855361,537.302596 858.917380,592.824014"/>
    <poly id="1114922882" type="building" color="255,230,230" fill="1" layer="-1.00" shape="481.465974,1057.082656 476.811351,1037.333870 468.456841,1039.270887 473.111474,1059.019670 481.465974,1057.082656"/>
    <poly id="1114922883" type="building" color="255,230,230" fill="1" layer="-1.00" shape="479.764273,1035.036188 477.233651,1024.308442 464.197236,1027.338584 466.727807,1038.077397 479.764273,1035.036188"/>
    <poly id="1114922884" type="building" color="255,230,230" fill="1" layer="-1.00" shape="436.215842,1048.453070 445.694041,1046.245273 446.527236,1049.813753 463.954220,1045.755339 459.868693,1028.422514 432.973877,1034.688787 436.215842,1048.453070"/>
    <poly id="1114922885" type="school" color="237,199,199" fill="1" layer="-2.00" shape="990.544027,1133.924306 1004.773899,1107.789803 970.290330,1089.254425 963.935411,1092.297632 952.434018,1113.421577 990.544027,1133.924306"/>
    <poly id="1114922885#1" type="building" color="255,230,230" fill="1" layer="-1.00" shape="990.544027,1133.924306 1004.773899,1107.789803 970.290330,1089.254425 963.935411,1092.297632 952.434018,1113.421577 990.544027,1133.924306"/>
    <poly id="1114922886" type="building" color="255,230,230" fill="1" layer="-1.00" shape="741.374954,1270.103108 742.883321,1265.882939 714.708682,1256.867353 713.555495,1260.735218 741.374954,1270.103108"/>
    <poly id="1114922887" type="building" color="255,230,230" fill="1" layer="-1.00" shape="801.470235,1298.868693 813.225170,1302.307106 817.553038,1287.664296 805.798034,1284.236949 801.470235,1298.868693"/>
    <poly id="1114922888" type="building" color="255,230,230" fill="1" layer="-1.00" shape="814.048555,1303.794670 827.339041,1307.672933 830.915567,1295.582965 817.625072,1291.704699 814.048555,1303.794670"/>
    <poly id="1114922889" type="building" color="255,230,230" fill="1" layer="-1.00" shape="829.890340,1287.110073 832.740244,1276.831481 822.571689,1274.043468 819.721791,1284.322060 829.890340,1287.110073"/>
    <poly id="1114922890" type="building" color="255,230,230" fill="1" layer="-1.00" shape="813.326816,1257.789950 810.074416,1269.505315 817.711241,1271.593607 820.953256,1259.878188 813.326816,1257.789950"/>
    <poly id="1114922891" type="building" color="255,230,230" fill="1" layer="-1.00" shape="818.899732,1284.539059 821.855776,1273.840426 806.623631,1269.675131 803.667656,1280.362698 818.899732,1284.539059"/>
    <poly id="1114922892" type="building" color="255,230,230" fill="1" layer="-1.00" shape="424.027152,494.751722 426.089391,503.683869 452.162379,497.745259 450.100153,488.813108 424.027152,494.751722"/>
    <poly id="1114922893" type="building" color="255,230,230" fill="1" layer="-1.00" shape="436.769818,515.882573 465.191478,509.912142 462.859418,498.953020 434.437740,504.923456 436.769818,515.882573"/>
    <poly id="1114922894" type="building" color="255,230,230" fill="1" layer="-1.00" shape="375.065073,513.729768 385.278133,512.134582 407.482650,508.676926 405.612341,496.856912 381.452471,500.636283 382.076011,504.557840 373.818166,505.853451 375.065073,513.729768"/>
    <poly id="1114922895" type="building" color="255,230,230" fill="1" layer="-1.00" shape="342.323882,579.989908 348.086770,578.869254 353.059156,577.888313 352.906915,577.201259 352.461402,574.985198 351.713339,571.029778 350.204360,563.583749 339.458510,565.718496 342.323882,579.989908"/>
    <poly id="1114922896" type="building" color="255,230,230" fill="1" layer="-1.00" shape="366.557710,568.097645 365.150017,561.150234 351.095968,563.975863 352.514057,570.923328 361.377200,569.132825 366.557710,568.097645"/>
    <poly id="1114922897" type="building" color="255,230,230" fill="1" layer="-1.00" shape="373.648909,577.144933 407.697954,570.108391 404.150705,553.132637 370.101627,560.169188 373.648909,577.144933"/>
    <poly id="1114922898" type="building" color="255,230,230" fill="1" layer="-1.00" shape="376.747389,604.312420 388.034506,602.003465 389.412592,608.651872 391.674914,609.228336 403.621896,605.937784 401.663775,598.932113 411.206855,596.292958 413.516238,599.758560 410.304186,584.245623 404.041690,585.518571 402.633136,578.737179 379.382671,583.495392 380.760821,590.132730 374.102933,591.503214 376.747389,604.312420"/>
    <poly id="1114922907" type="building" color="255,230,230" fill="1" layer="-1.00" shape="561.097316,396.004829 566.161037,387.608518 549.141123,377.468086 547.683863,379.884371 544.866182,378.209159 547.843637,373.266237 540.364455,368.799191 540.741832,368.181353 534.267393,364.328404 525.670559,378.594462 540.629035,387.506407 542.264591,384.781147 561.097316,396.004829"/>
    <poly id="1114922913" type="building" color="255,230,230" fill="1" layer="-1.00" shape="1681.128534,356.055751 1694.703100,326.487017 1681.962628,320.696179 1668.377630,350.275935 1681.128534,356.055751"/>
    <poly id="1114922925" type="building" color="255,230,230" fill="1" layer="-1.00" shape="1702.470570,352.694796 1707.169537,342.669772 1698.088851,338.470308 1693.400280,348.495389 1702.470570,352.694796"/>
    <poly id="1114922926" type="building" color="255,230,230" fill="1" layer="-1.00" shape="1703.238770,352.842812 1717.886016,359.617940 1722.280130,350.244328 1707.632936,343.458128 1703.238770,352.842812"/>
    <poly id="1114922927" type="building" color="255,230,230" fill="1" layer="-1.00" shape="1725.333615,364.107497 1733.333395,347.049534 1726.357024,343.824320 1718.367641,360.882342 1725.333615,364.107497"/>
    <poly id="1114922929" type="building" color="255,230,230" fill="1" layer="-1.00" shape="1754.405526,374.590621 1760.986185,360.557832 1733.868641,348.004305 1727.298334,362.048228 1754.405526,374.590621"/>
    <poly id="1117175798" type="building" color="255,230,230" fill="1" layer="-1.00" shape="1195.610842,337.030988 1203.268676,337.204693 1203.808608,313.930422 1196.150763,313.756717 1195.610842,337.030988"/>
    <poly id="1117175799" type="building" color="255,230,230" fill="1" layer="-1.00" shape="1283.294876,331.577643 1282.841644,321.104374 1279.868900,321.232380 1280.322134,331.705649 1283.294876,331.577643"/>
    <poly id="1117175800" type="building" color="255,230,230" fill="1" layer="-1.00" shape="1275.874625,331.670815 1279.814015,331.503700 1279.379256,321.462203 1275.439864,321.629319 1275.874625,331.670815"/>
    <poly id="1117175806" type="building" color="255,230,230" fill="1" layer="-1.00" shape="1275.386579,331.601796 1274.715964,319.024342 1269.102827,319.315339 1269.763054,331.892737 1275.386579,331.601796"/>
    <poly id="1117175807" type="building" color="255,230,230" fill="1" layer="-1.00" shape="1262.980411,331.292004 1263.370068,305.039489 1260.055347,304.988575 1259.665695,331.241089 1262.980411,331.292004"/>
    <poly id="1117175809" type="building" color="255,230,230" fill="1" layer="-1.00" shape="1254.125407,333.458408 1254.353724,317.952592 1246.124051,317.831151 1245.895742,333.336967 1254.125407,333.458408"/>
    <poly id="1117175811" type="building" color="255,230,230" fill="1" layer="-1.00" shape="1238.504171,335.843253 1245.383293,335.891065 1245.871130,306.816596 1238.929943,306.713110 1238.504171,335.843253"/>
    <poly id="1117175812" type="building" color="255,230,230" fill="1" layer="-1.00" shape="1236.613047,333.862951 1236.912542,310.864109 1232.392465,310.795694 1232.092976,333.794536 1236.613047,333.862951"/>
    <poly id="1117175814" type="building" color="255,230,230" fill="1" layer="-1.00" shape="1231.511228,333.758224 1231.852460,310.726399 1223.934471,310.617703 1223.593310,333.638459 1231.511228,333.758224"/>
    <poly id="1117175815" type="building" color="255,230,230" fill="1" layer="-1.00" shape="1217.787764,332.987619 1223.087140,333.071260 1223.411940,311.168340 1218.112557,311.084699 1217.787764,332.987619"/>
    <poly id="1117175816" type="building" color="255,230,230" fill="1" layer="-1.00" shape="1204.122384,334.962336 1217.370911,335.154829 1217.613308,318.951770 1204.364769,318.759278 1204.122384,334.962336"/>
    <poly id="1117175818" type="building" color="255,230,230" fill="1" layer="-1.00" shape="1328.774066,330.713879 1335.339847,331.058903 1336.439544,310.023469 1329.873695,309.689513 1328.774066,330.713879"/>
    <poly id="1117175819" type="building" color="255,230,230" fill="1" layer="-1.00" shape="1328.468605,333.424040 1327.715427,301.310150 1323.225633,301.407901 1323.978820,333.521790 1328.468605,333.424040"/>
    <poly id="1117175820" type="building" color="255,230,230" fill="1" layer="-1.00" shape="1316.501012,332.718085 1315.992483,311.209174 1308.675723,311.380365 1309.184261,332.889275 1316.501012,332.718085"/>
    <poly id="1117175821" type="building" color="255,230,230" fill="1" layer="-1.00" shape="1302.642221,331.990961 1308.150553,331.865443 1307.617938,309.028179 1302.099148,309.164709 1302.642221,331.990961"/>
    <poly id="1117189772" type="building" color="255,230,230" fill="1" layer="-1.00" shape="1157.149813,611.779487 1177.055723,610.668193 1176.163246,594.868609 1156.257318,595.979905 1157.149813,611.779487"/>
    <poly id="1117189773" type="building" color="255,230,230" fill="1" layer="-1.00" shape="1121.878780,730.943447 1126.890023,732.420163 1137.185928,697.764127 1132.174615,696.298477 1121.878780,730.943447"/>