<?xml version="1.0" encoding="UTF-8"?>

<!-- generated on 2025-05-18 16:58:56 by Eclipse SUMO netconvert Version 1.22.0
<netconvertConfiguration xmlns:xsi="http://www.w3.org/2001/XMLSchema-instance" xsi:noNamespaceSchemaLocation="http://sumo.dlr.de/xsd/netconvertConfiguration.xsd">

    <input>
        <sumo-net-file value="complex_ped.net.xml"/>
    </input>

    <output>
        <output-file value="complex_ped.net.xml"/>
    </output>

    <processing>
        <geometry.min-radius.fix.railways value="false"/>
        <geometry.max-grade.fix value="false"/>
        <offset.disable-normalization value="true"/>
        <lefthand value="0"/>
    </processing>

    <junctions>
        <no-turnarounds value="true"/>
        <junctions.corner-detail value="5"/>
        <junctions.limit-turn-speed value="5.50"/>
        <rectangular-lane-cut value="0"/>
    </junctions>

    <pedestrian>
        <crossings.guess value="true"/>
        <walkingareas value="1"/>
    </pedestrian>

</netconvertConfiguration>
-->

<net version="1.20" junctionCornerDetail="5" walkingareas="true" limitTurnSpeed="5.50" xmlns:xsi="http://www.w3.org/2001/XMLSchema-instance" xsi:noNamespaceSchemaLocation="http://sumo.dlr.de/xsd/net_file.xsd">

    <location netOffset="1800.00,1200.00" convBoundary="0.00,0.00,3600.00,2550.00" origBoundary="-1800.00,-1200.00,1800.00,1350.00" projParameter="!"/>

    <edge id=":1_0" function="internal">
        <lane id=":1_0_0" index="0" disallow="pedestrian" speed="6.51" length="9.03" shape="1788.80,1216.80 1788.45,1214.35 1787.40,1212.60 1785.65,1211.55 1783.20,1211.20"/>
    </edge>
    <edge id=":1_1" function="internal">
        <lane id=":1_1_0" index="0" disallow="pedestrian" speed="23.90" length="33.60" shape="1788.80,1216.80 1788.80,1183.20"/>
        <lane id=":1_1_1" index="1" disallow="pedestrian" speed="23.90" length="33.60" shape="1792.00,1216.80 1792.00,1183.20"/>
        <lane id=":1_1_2" index="2" disallow="pedestrian" speed="23.90" length="33.60" shape="1795.20,1216.80 1795.20,1183.20"/>
        <lane id=":1_1_3" index="3" disallow="pedestrian" speed="23.90" length="33.60" shape="1798.40,1216.80 1798.40,1183.20"/>
    </edge>
    <edge id=":1_5" function="internal">
        <lane id=":1_5_0" index="0" disallow="pedestrian" speed="11.36" length="5.01" shape="1798.40,1216.80 1799.11,1211.84"/>
    </edge>
    <edge id=":1_6" function="internal">
        <lane id=":1_6_0" index="0" disallow="pedestrian" speed="3.65" length="1.44" shape="1798.40,1216.80 1799.20,1215.60"/>
    </edge>
    <edge id=":1_32" function="internal">
        <lane id=":1_32_0" index="0" disallow="pedestrian" speed="11.36" length="24.66" shape="1799.11,1211.84 1799.55,1208.75 1803.00,1203.00 1808.75,1199.55 1816.80,1198.40"/>
    </edge>
    <edge id=":1_33" function="internal">
        <lane id=":1_33_0" index="0" disallow="pedestrian" speed="3.65" length="3.23" shape="1799.20,1215.60 1800.00,1215.20 1800.80,1215.60 1801.60,1216.80"/>
    </edge>
    <edge id=":1_7" function="internal">
        <lane id=":1_7_0" index="0" disallow="pedestrian" speed="6.51" length="9.03" shape="1816.80,1211.20 1814.35,1211.55 1812.60,1212.60 1811.55,1214.35 1811.20,1216.80"/>
        <lane id=":1_7_1" index="1" disallow="pedestrian" speed="8.00" length="14.19" shape="1816.80,1208.00 1812.95,1208.55 1810.20,1210.20 1808.55,1212.95 1808.00,1216.80"/>
    </edge>
    <edge id=":1_9" function="internal">
        <lane id=":1_9_0" index="0" disallow="pedestrian" speed="23.90" length="33.70" shape="1816.80,1208.00 1806.80,1208.50 1800.00,1209.60 1793.20,1210.70 1783.20,1211.20"/>
        <lane id=":1_9_1" index="1" disallow="pedestrian" speed="23.90" length="33.70" shape="1816.80,1208.00 1783.20,1208.00"/>
        <lane id=":1_9_2" index="2" disallow="pedestrian" speed="23.90" length="33.70" shape="1816.80,1204.80 1783.20,1204.80"/>
        <lane id=":1_9_3" index="3" disallow="pedestrian" speed="23.90" length="33.70" shape="1816.80,1204.80 1806.80,1204.30 1800.00,1203.20 1793.20,1202.10 1783.20,1201.60"/>
    </edge>
    <edge id=":1_13" function="internal">
        <lane id=":1_13_0" index="0" disallow="pedestrian" speed="12.28" length="34.84" shape="1816.80,1204.80 1807.35,1203.45 1800.60,1199.40 1796.55,1192.65 1795.20,1183.20"/>
        <lane id=":1_13_1" index="1" disallow="pedestrian" speed="11.36" length="29.67" shape="1816.80,1201.60 1808.75,1200.45 1803.00,1197.00 1799.55,1191.25 1798.40,1183.20"/>
    </edge>
    <edge id=":1_15" function="internal">
        <lane id=":1_15_0" index="0" disallow="pedestrian" speed="3.65" length="4.67" shape="1816.80,1201.60 1815.60,1200.80 1815.20,1200.00 1815.60,1199.20 1816.80,1198.40"/>
    </edge>
    <edge id=":1_16" function="internal">
        <lane id=":1_16_0" index="0" disallow="pedestrian" speed="6.51" length="9.03" shape="1811.20,1183.20 1811.55,1185.65 1812.60,1187.40 1814.35,1188.45 1816.80,1188.80"/>
    </edge>
    <edge id=":1_17" function="internal">
        <lane id=":1_17_0" index="0" disallow="pedestrian" speed="23.90" length="33.60" shape="1811.20,1183.20 1811.20,1216.80"/>
        <lane id=":1_17_1" index="1" disallow="pedestrian" speed="23.90" length="33.60" shape="1808.00,1183.20 1808.00,1216.80"/>
        <lane id=":1_17_2" index="2" disallow="pedestrian" speed="23.90" length="33.60" shape="1804.80,1183.20 1804.80,1216.80"/>
        <lane id=":1_17_3" index="3" disallow="pedestrian" speed="23.90" length="33.60" shape="1801.60,1183.20 1801.60,1216.80"/>
    </edge>
    <edge id=":1_21" function="internal">
        <lane id=":1_21_0" index="0" disallow="pedestrian" speed="11.36" length="5.01" shape="1801.60,1183.20 1800.89,1188.16"/>
    </edge>
    <edge id=":1_22" function="internal">
        <lane id=":1_22_0" index="0" disallow="pedestrian" speed="3.65" length="1.44" shape="1801.60,1183.20 1800.80,1184.40"/>
    </edge>
    <edge id=":1_34" function="internal">
        <lane id=":1_34_0" index="0" disallow="pedestrian" speed="11.36" length="24.66" shape="1800.89,1188.16 1800.45,1191.25 1797.00,1197.00 1791.25,1200.45 1783.20,1201.60"/>
    </edge>
    <edge id=":1_35" function="internal">
        <lane id=":1_35_0" index="0" disallow="pedestrian" speed="3.65" length="3.23" shape="1800.80,1184.40 1800.00,1184.80 1799.20,1184.40 1798.40,1183.20"/>
    </edge>
    <edge id=":1_23" function="internal">
        <lane id=":1_23_0" index="0" disallow="pedestrian" speed="6.51" length="9.03" shape="1783.20,1188.80 1785.65,1188.45 1787.40,1187.40 1788.45,1185.65 1788.80,1183.20"/>
        <lane id=":1_23_1" index="1" disallow="pedestrian" speed="8.00" length="14.19" shape="1783.20,1192.00 1787.05,1191.45 1789.80,1189.80 1791.45,1187.05 1792.00,1183.20"/>
    </edge>
    <edge id=":1_25" function="internal">
        <lane id=":1_25_0" index="0" disallow="pedestrian" speed="23.90" length="33.70" shape="1783.20,1192.00 1793.20,1191.50 1800.00,1190.40 1806.80,1189.30 1816.80,1188.80"/>
        <lane id=":1_25_1" index="1" disallow="pedestrian" speed="23.90" length="33.70" shape="1783.20,1192.00 1816.80,1192.00"/>
        <lane id=":1_25_2" index="2" disallow="pedestrian" speed="23.90" length="33.70" shape="1783.20,1195.20 1816.80,1195.20"/>
        <lane id=":1_25_3" index="3" disallow="pedestrian" speed="23.90" length="33.70" shape="1783.20,1195.20 1793.20,1195.70 1800.00,1196.80 1806.80,1197.90 1816.80,1198.40"/>
    </edge>
    <edge id=":1_29" function="internal">
        <lane id=":1_29_0" index="0" disallow="pedestrian" speed="12.28" length="34.84" shape="1783.20,1195.20 1792.65,1196.55 1799.40,1200.60 1803.45,1207.35 1804.80,1216.80"/>
        <lane id=":1_29_1" index="1" disallow="pedestrian" speed="11.36" length="29.67" shape="1783.20,1198.40 1791.25,1199.55 1797.00,1203.00 1800.45,1208.75 1801.60,1216.80"/>
    </edge>
    <edge id=":1_31" function="internal">
        <lane id=":1_31_0" index="0" disallow="pedestrian" speed="3.65" length="4.67" shape="1783.20,1198.40 1784.40,1199.20 1784.80,1200.00 1784.40,1200.80 1783.20,1201.60"/>
    </edge>
    <edge id=":1_w0" function="walkingarea">
        <lane id=":1_w0_0" index="0" allow="pedestrian" speed="2.78" length="4.24" width="2.00" shape="1783.20,1212.80 1783.20,1214.80 1785.20,1216.80 1787.20,1216.80 1787.09,1215.58 1786.76,1214.58 1786.20,1213.80 1785.42,1213.24 1784.42,1212.91"/>
    </edge>
    <edge id=":1_w1" function="walkingarea">
        <lane id=":1_w1_0" index="0" allow="pedestrian" speed="2.78" length="4.24" width="2.00" shape="1812.80,1216.80 1814.80,1216.80 1816.80,1214.80 1816.80,1212.80 1815.58,1212.91 1814.58,1213.24 1813.80,1213.80 1813.24,1214.58 1812.91,1215.58"/>
    </edge>
    <edge id=":1_w2" function="walkingarea">
        <lane id=":1_w2_0" index="0" allow="pedestrian" speed="2.78" length="4.24" width="2.00" shape="1816.80,1187.20 1816.80,1185.20 1814.80,1183.20 1812.80,1183.20 1812.91,1184.42 1813.24,1185.42 1813.80,1186.20 1814.58,1186.76 1815.58,1187.09"/>
    </edge>
    <edge id=":1_w3" function="walkingarea">
        <lane id=":1_w3_0" index="0" allow="pedestrian" speed="2.78" length="4.24" width="2.00" shape="1787.20,1183.20 1785.20,1183.20 1783.20,1185.20 1783.20,1187.20 1784.42,1187.09 1785.42,1186.76 1786.20,1186.20 1786.76,1185.42 1787.09,1184.42"/>
    </edge>
    <edge id=":10_0" function="internal">
        <lane id=":10_0_0" index="0" disallow="pedestrian" speed="12.07" length="21.71" shape="1651.59,1228.22 1647.60,1220.77 1644.15,1215.45 1641.23,1212.26 1638.85,1211.20"/>
        <lane id=":10_0_1" index="1" disallow="pedestrian" speed="12.96" length="25.14" shape="1654.45,1226.79 1649.95,1218.57 1645.85,1212.70 1642.15,1209.17 1638.85,1208.00"/>
    </edge>
    <edge id=":10_2" function="internal">
        <lane id=":10_2_0" index="0" disallow="pedestrian" speed="21.26" length="54.16" shape="1657.31,1225.35 1651.71,1211.25 1649.36,1197.85 1650.28,1185.18 1654.45,1173.21"/>
        <lane id=":10_2_1" index="1" disallow="pedestrian" speed="20.96" length="52.63" shape="1657.31,1225.35 1652.56,1212.68 1650.97,1200.00 1652.56,1187.32 1657.31,1174.65"/>
    </edge>
    <edge id=":10_4" function="internal">
        <lane id=":10_4_0" index="0" disallow="pedestrian" speed="11.99" length="44.90" shape="1657.31,1225.35 1653.74,1213.21 1655.94,1203.67 1663.49,1197.43 1675.95,1195.20"/>
        <lane id=":10_4_1" index="1" disallow="pedestrian" speed="11.06" length="38.00" shape="1660.17,1223.92 1657.15,1213.65 1659.01,1205.57 1665.40,1200.29 1675.95,1198.40"/>
    </edge>
    <edge id=":10_6" function="internal">
        <lane id=":10_6_0" index="0" disallow="pedestrian" speed="3.65" length="4.67" shape="1660.17,1223.92 1660.35,1222.49 1660.89,1221.78 1661.78,1221.78 1663.03,1222.49"/>
    </edge>
    <edge id=":10_7" function="internal">
        <lane id=":10_7_0" index="0" disallow="pedestrian" speed="6.18" length="10.91" shape="1675.95,1211.20 1672.74,1211.64 1670.95,1212.95 1670.58,1215.14 1671.62,1218.20"/>
    </edge>
    <edge id=":10_8" function="internal">
        <lane id=":10_8_0" index="0" disallow="pedestrian" speed="23.90" length="37.09" shape="1675.95,1211.20 1638.85,1211.20"/>
        <lane id=":10_8_1" index="1" disallow="pedestrian" speed="23.90" length="37.09" shape="1675.95,1208.00 1638.85,1208.00"/>
        <lane id=":10_8_2" index="2" disallow="pedestrian" speed="23.90" length="37.09" shape="1675.95,1204.80 1638.85,1204.80"/>
        <lane id=":10_8_3" index="3" disallow="pedestrian" speed="23.90" length="37.09" shape="1675.95,1201.60 1638.85,1201.60"/>
    </edge>
    <edge id=":10_12" function="internal">
        <lane id=":10_12_0" index="0" disallow="pedestrian" speed="11.06" length="4.05" shape="1675.95,1201.60 1671.97,1200.89"/>
    </edge>
    <edge id=":10_13" function="internal">
        <lane id=":10_13_0" index="0" disallow="pedestrian" speed="3.65" length="1.44" shape="1675.95,1201.60 1674.75,1200.80"/>
    </edge>
    <edge id=":10_28" function="internal">
        <lane id=":10_28_0" index="0" disallow="pedestrian" speed="11.06" length="33.96" shape="1671.97,1200.89 1665.40,1199.71 1659.01,1194.43 1657.15,1186.35 1660.17,1176.08"/>
    </edge>
    <edge id=":10_29" function="internal">
        <lane id=":10_29_0" index="0" disallow="pedestrian" speed="3.65" length="3.23" shape="1674.75,1200.80 1674.35,1200.00 1674.75,1199.20 1675.95,1198.40"/>
    </edge>
    <edge id=":10_14" function="internal">
        <lane id=":10_14_0" index="0" disallow="pedestrian" speed="6.18" length="10.91" shape="1671.62,1181.80 1670.58,1184.86 1670.95,1187.05 1672.74,1188.36 1675.95,1188.80"/>
        <lane id=":10_14_1" index="1" disallow="pedestrian" speed="7.79" length="18.12" shape="1668.76,1180.37 1667.03,1185.46 1667.65,1189.09 1670.62,1191.27 1675.95,1192.00"/>
    </edge>
    <edge id=":10_16" function="internal">
        <lane id=":10_16_0" index="0" disallow="pedestrian" speed="18.81" length="42.28" shape="1665.90,1178.94 1662.80,1188.04 1662.24,1197.85 1664.23,1208.38 1668.76,1219.63"/>
        <lane id=":10_16_1" index="1" disallow="pedestrian" speed="19.12" length="43.72" shape="1665.90,1178.94 1661.95,1189.47 1660.63,1200.00 1661.95,1210.53 1665.90,1221.06"/>
    </edge>
    <edge id=":10_18" function="internal">
        <lane id=":10_18_0" index="0" disallow="pedestrian" speed="16.09" length="39.11" shape="1665.90,1178.94 1659.36,1190.25 1652.67,1198.33 1645.84,1203.18 1638.85,1204.80"/>
        <lane id=":10_18_1" index="1" disallow="pedestrian" speed="15.36" length="35.59" shape="1663.03,1177.51 1657.01,1188.05 1650.97,1195.58 1644.92,1200.09 1638.85,1201.60"/>
    </edge>
    <edge id=":10_20" function="internal">
        <lane id=":10_20_0" index="0" disallow="pedestrian" speed="3.65" length="4.67" shape="1663.03,1177.51 1661.78,1178.22 1660.89,1178.22 1660.35,1177.51 1660.17,1176.08"/>
    </edge>
    <edge id=":10_21" function="internal">
        <lane id=":10_21_0" index="0" disallow="pedestrian" speed="12.07" length="21.71" shape="1638.85,1188.80 1641.23,1187.74 1644.15,1184.55 1647.60,1179.23 1651.59,1171.78"/>
    </edge>
    <edge id=":10_22" function="internal">
        <lane id=":10_22_0" index="0" disallow="pedestrian" speed="23.90" length="37.09" shape="1638.85,1188.80 1675.95,1188.80"/>
        <lane id=":10_22_1" index="1" disallow="pedestrian" speed="23.90" length="37.09" shape="1638.85,1192.00 1675.95,1192.00"/>
        <lane id=":10_22_2" index="2" disallow="pedestrian" speed="23.90" length="37.09" shape="1638.85,1195.20 1675.95,1195.20"/>
        <lane id=":10_22_3" index="3" disallow="pedestrian" speed="23.90" length="37.09" shape="1638.85,1198.40 1675.95,1198.40"/>
    </edge>
    <edge id=":10_26" function="internal">
        <lane id=":10_26_0" index="0" disallow="pedestrian" speed="15.36" length="3.01" shape="1638.85,1198.40 1641.78,1199.13"/>
    </edge>
    <edge id=":10_27" function="internal">
        <lane id=":10_27_0" index="0" disallow="pedestrian" speed="3.65" length="1.44" shape="1638.85,1198.40 1640.05,1199.20"/>
    </edge>
    <edge id=":10_30" function="internal">
        <lane id=":10_30_0" index="0" disallow="pedestrian" speed="15.36" length="32.58" shape="1641.78,1199.13 1644.92,1199.91 1650.97,1204.42 1657.01,1211.95 1663.03,1222.49"/>
    </edge>
    <edge id=":10_31" function="internal">
        <lane id=":10_31_0" index="0" disallow="pedestrian" speed="3.65" length="3.23" shape="1640.05,1199.20 1640.45,1200.00 1640.05,1200.80 1638.85,1201.60"/>
    </edge>
    <edge id=":10_w0" function="walkingarea">
        <lane id=":10_w0_0" index="0" allow="pedestrian" speed="2.78" length="18.74" width="2.00" shape="1638.85,1212.80 1638.85,1214.80 1648.37,1229.83 1650.16,1228.93 1647.60,1224.00 1645.31,1219.97 1643.30,1216.83 1641.55,1214.59 1640.07,1213.25"/>
    </edge>
    <edge id=":10_w1" function="walkingarea">
        <lane id=":10_w1_0" index="0" allow="pedestrian" speed="2.78" length="3.80" width="2.00" shape="1673.05,1217.48 1674.84,1216.59 1675.95,1214.80 1675.95,1212.80 1674.41,1212.93 1673.30,1213.32 1672.61,1213.97 1672.33,1214.88 1672.48,1216.05"/>
    </edge>
    <edge id=":10_w2" function="walkingarea">
        <lane id=":10_w2_0" index="0" allow="pedestrian" speed="2.78" length="3.80" width="2.00" shape="1675.95,1187.20 1675.95,1185.20 1674.84,1183.41 1673.05,1182.52 1672.48,1183.95 1672.33,1185.12 1672.61,1186.03 1673.30,1186.68 1674.41,1187.07"/>
    </edge>
    <edge id=":10_w3" function="walkingarea">
        <lane id=":10_w3_0" index="0" allow="pedestrian" speed="2.78" length="18.74" width="2.00" shape="1650.16,1171.07 1648.37,1170.17 1638.85,1185.20 1638.85,1187.20 1640.07,1186.75 1641.55,1185.41 1643.30,1183.17 1645.31,1180.03 1647.60,1176.00"/>
    </edge>
    <edge id=":101_0" function="internal">
        <lane id=":101_0_0" index="0" disallow="pedestrian" speed="6.51" length="9.03" shape="2388.80,1066.80 2388.45,1064.35 2387.40,1062.60 2385.65,1061.55 2383.20,1061.20"/>
    </edge>
    <edge id=":101_1" function="internal">
        <lane id=":101_1_0" index="0" disallow="pedestrian" speed="23.90" length="42.75" shape="2388.80,1066.80 2388.80,1024.05"/>
        <lane id=":101_1_1" index="1" disallow="pedestrian" speed="23.90" length="42.75" shape="2392.00,1066.80 2392.00,1024.05"/>
        <lane id=":101_1_2" index="2" disallow="pedestrian" speed="23.90" length="42.75" shape="2395.20,1066.80 2395.20,1024.05"/>
        <lane id=":101_1_3" index="3" disallow="pedestrian" speed="23.90" length="42.75" shape="2398.40,1066.80 2398.40,1024.05"/>
    </edge>
    <edge id=":101_5" function="internal">
        <lane id=":101_5_0" index="0" disallow="pedestrian" speed="16.34" length="4.11" shape="2398.40,1066.80 2399.11,1062.75"/>
    </edge>
    <edge id=":101_6" function="internal">
        <lane id=":101_6_0" index="0" disallow="pedestrian" speed="3.65" length="1.44" shape="2398.40,1066.80 2399.20,1065.60"/>
    </edge>
    <edge id=":101_32" function="internal">
        <lane id=":101_32_0" index="0" disallow="pedestrian" speed="16.34" length="36.26" shape="2399.11,1062.75 2399.91,1058.26 2404.42,1050.45 2411.95,1043.35 2422.49,1036.97"/>
    </edge>
    <edge id=":101_33" function="internal">
        <lane id=":101_33_0" index="0" disallow="pedestrian" speed="3.65" length="3.23" shape="2399.20,1065.60 2400.00,1065.20 2400.80,1065.60 2401.60,1066.80"/>
    </edge>
    <edge id=":101_7" function="internal">
        <lane id=":101_7_0" index="0" disallow="pedestrian" speed="13.23" length="26.22" shape="2428.22,1048.41 2420.77,1052.75 2415.45,1057.26 2412.26,1061.95 2411.20,1066.80"/>
        <lane id=":101_7_1" index="1" disallow="pedestrian" speed="14.07" length="29.75" shape="2426.79,1045.55 2418.57,1050.40 2412.70,1055.56 2409.17,1061.03 2408.00,1066.80"/>
    </edge>
    <edge id=":101_9" function="internal">
        <lane id=":101_9_0" index="0" disallow="pedestrian" speed="23.90" length="45.40" shape="2426.79,1045.55 2414.49,1052.37 2405.91,1057.26 2396.87,1060.21 2383.20,1061.20"/>
        <lane id=":101_9_1" index="1" disallow="pedestrian" speed="23.90" length="45.40" shape="2426.79,1045.55 2414.61,1051.77 2405.89,1055.58 2396.72,1057.48 2383.20,1058.00"/>
        <lane id=":101_9_2" index="2" disallow="pedestrian" speed="23.90" length="45.40" shape="2425.35,1042.69 2413.58,1048.72 2405.15,1052.42 2396.28,1054.29 2383.20,1054.80"/>
        <lane id=":101_9_3" index="3" disallow="pedestrian" speed="23.90" length="45.40" shape="2425.35,1042.69 2413.67,1048.15 2405.13,1050.76 2396.17,1051.56 2383.20,1051.60"/>
    </edge>
    <edge id=":101_13" function="internal">
        <lane id=":101_13_0" index="0" disallow="pedestrian" speed="11.99" length="44.90" shape="2425.35,1042.69 2413.21,1046.26 2403.67,1044.06 2397.43,1036.51 2395.20,1024.05"/>
        <lane id=":101_13_1" index="1" disallow="pedestrian" speed="11.06" length="38.00" shape="2423.92,1039.83 2413.65,1042.85 2405.57,1040.99 2400.29,1034.60 2398.40,1024.05"/>
    </edge>
    <edge id=":101_15" function="internal">
        <lane id=":101_15_0" index="0" disallow="pedestrian" speed="3.65" length="4.67" shape="2423.92,1039.83 2422.49,1039.65 2421.78,1039.11 2421.78,1038.22 2422.49,1036.97"/>
    </edge>
    <edge id=":101_16" function="internal">
        <lane id=":101_16_0" index="0" disallow="pedestrian" speed="6.18" length="10.91" shape="2411.20,1024.05 2411.64,1027.26 2412.95,1029.05 2415.14,1029.42 2418.20,1028.38"/>
    </edge>
    <edge id=":101_17" function="internal">
        <lane id=":101_17_0" index="0" disallow="pedestrian" speed="23.90" length="42.75" shape="2411.20,1024.05 2411.20,1066.80"/>
        <lane id=":101_17_1" index="1" disallow="pedestrian" speed="23.90" length="42.75" shape="2408.00,1024.05 2408.00,1066.80"/>
        <lane id=":101_17_2" index="2" disallow="pedestrian" speed="23.90" length="42.75" shape="2404.80,1024.05 2404.80,1066.80"/>
        <lane id=":101_17_3" index="3" disallow="pedestrian" speed="23.90" length="42.75" shape="2401.60,1024.05 2401.60,1066.80"/>
    </edge>
    <edge id=":101_21" function="internal">
        <lane id=":101_21_0" index="0" disallow="pedestrian" speed="12.70" length="7.41" shape="2401.60,1024.05 2400.90,1031.43"/>
    </edge>
    <edge id=":101_22" function="internal">
        <lane id=":101_22_0" index="0" disallow="pedestrian" speed="3.65" length="1.44" shape="2401.60,1024.05 2400.80,1025.25"/>
    </edge>
    <edge id=":101_34" function="internal">
        <lane id=":101_34_0" index="0" disallow="pedestrian" speed="12.70" length="29.93" shape="2400.90,1031.43 2400.45,1036.10 2397.00,1044.71 2391.25,1049.88 2383.20,1051.60"/>
    </edge>
    <edge id=":101_35" function="internal">
        <lane id=":101_35_0" index="0" disallow="pedestrian" speed="3.65" length="3.23" shape="2400.80,1025.25 2400.00,1025.65 2399.20,1025.25 2398.40,1024.05"/>
    </edge>
    <edge id=":101_23" function="internal">
        <lane id=":101_23_0" index="0" disallow="pedestrian" speed="8.73" length="17.08" shape="2383.20,1038.80 2385.65,1037.88 2387.40,1035.11 2388.45,1030.50 2388.80,1024.05"/>
        <lane id=":101_23_1" index="1" disallow="pedestrian" speed="9.86" length="22.07" shape="2383.20,1042.00 2387.05,1040.88 2389.80,1037.51 2391.45,1031.90 2392.00,1024.05"/>
    </edge>
    <edge id=":101_25" function="internal">
        <lane id=":101_25_0" index="0" disallow="pedestrian" speed="23.90" length="39.45" shape="2383.20,1042.00 2394.23,1041.05 2401.44,1038.34 2408.29,1034.05 2418.20,1028.38"/>
        <lane id=":101_25_1" index="1" disallow="pedestrian" speed="23.90" length="39.45" shape="2383.20,1042.00 2394.52,1041.51 2402.17,1039.81 2409.44,1036.51 2419.63,1031.24"/>
        <lane id=":101_25_2" index="2" disallow="pedestrian" speed="23.90" length="39.45" shape="2383.20,1045.20 2394.96,1044.71 2402.91,1042.96 2410.48,1039.56 2421.06,1034.10"/>
        <lane id=":101_25_3" index="3" disallow="pedestrian" speed="23.90" length="39.45" shape="2383.20,1045.20 2395.28,1045.18 2403.64,1044.45 2411.60,1042.04 2422.49,1036.97"/>
    </edge>
    <edge id=":101_29" function="internal">
        <lane id=":101_29_0" index="0" disallow="pedestrian" speed="12.28" length="34.84" shape="2383.20,1045.20 2392.65,1046.55 2399.40,1050.60 2403.45,1057.35 2404.80,1066.80"/>
        <lane id=":101_29_1" index="1" disallow="pedestrian" speed="11.36" length="29.67" shape="2383.20,1048.40 2391.25,1049.55 2397.00,1053.00 2400.45,1058.75 2401.60,1066.80"/>
    </edge>
    <edge id=":101_31" function="internal">
        <lane id=":101_31_0" index="0" disallow="pedestrian" speed="3.65" length="4.67" shape="2383.20,1048.40 2384.40,1049.20 2384.80,1050.00 2384.40,1050.80 2383.20,1051.60"/>
    </edge>
    <edge id=":101_w0" function="walkingarea">
        <lane id=":101_w0_0" index="0" allow="pedestrian" speed="2.78" length="4.24" width="2.00" shape="2383.20,1062.80 2383.20,1064.80 2385.20,1066.80 2387.20,1066.80 2387.09,1065.58 2386.76,1064.58 2386.20,1063.80 2385.42,1063.24 2384.42,1062.91"/>
    </edge>
    <edge id=":101_w1" function="walkingarea">
        <lane id=":101_w1_0" index="0" allow="pedestrian" speed="2.78" length="22.38" width="2.00" shape="2412.80,1066.80 2414.80,1066.80 2429.83,1051.63 2428.93,1049.84 2424.00,1052.56 2419.97,1055.31 2416.83,1058.12 2414.59,1060.97 2413.25,1063.86"/>
    </edge>
    <edge id=":101_w2" function="walkingarea">
        <lane id=":101_w2_0" index="0" allow="pedestrian" speed="2.78" length="3.80" width="2.00" shape="2417.48,1026.95 2416.59,1025.16 2414.80,1024.05 2412.80,1024.05 2412.93,1025.59 2413.32,1026.70 2413.97,1027.39 2414.88,1027.67 2416.05,1027.52"/>
    </edge>
    <edge id=":101_w3" function="walkingarea">
        <lane id=":101_w3_0" index="0" allow="pedestrian" speed="2.78" length="12.51" width="2.00" shape="2387.20,1024.05 2385.20,1024.05 2383.20,1035.20 2383.20,1037.20 2384.42,1036.83 2385.42,1035.74 2386.20,1033.91 2386.76,1031.36 2387.09,1028.07"/>
    </edge>
    <edge id=":1075_0" function="internal">
        <lane id=":1075_0_0" index="0" disallow="pedestrian" speed="3.65" length="4.67" shape="2251.60,450.00 2250.80,451.20 2250.00,451.60 2249.20,451.20 2248.40,450.00"/>
    </edge>
    <edge id=":1075_w0" function="walkingarea">
        <lane id=":1075_w0_0" index="0" allow="pedestrian" speed="2.78" length="27.60" width="2.00" shape="2237.20,450.00 2235.20,450.00 2264.80,450.00 2262.80,450.00"/>
    </edge>
    <edge id=":1081_0" function="internal">
        <lane id=":1081_0_0" index="0" disallow="pedestrian" speed="23.90" length="61.59" shape="1938.80,316.80 1941.00,300.71 1947.15,288.35 1956.62,277.37 1968.76,265.40"/>
        <lane id=":1081_0_1" index="1" disallow="pedestrian" speed="23.90" length="59.24" shape="1942.00,316.80 1944.05,301.06 1949.88,289.49 1959.03,279.28 1971.02,267.66"/>
        <lane id=":1081_0_2" index="2" disallow="pedestrian" speed="23.90" length="55.78" shape="1945.20,316.80 1946.96,306.82 1952.22,295.69 1961.00,283.39 1973.29,269.93"/>
    </edge>
    <edge id=":1081_3" function="internal">
        <lane id=":1081_3_0" index="0" disallow="pedestrian" speed="14.64" length="4.80" shape="1948.40,316.80 1949.61,312.16"/>
        <lane id=":1081_3_1" index="1" disallow="pedestrian" speed="14.32" length="3.76" shape="1948.40,316.80 1949.50,313.20"/>
    </edge>
    <edge id=":1081_5" function="internal">
        <lane id=":1081_5_0" index="0" disallow="pedestrian" speed="3.65" length="1.44" shape="1948.40,316.80 1949.20,315.60"/>
    </edge>
    <edge id=":1081_19" function="internal">
        <lane id=":1081_19_0" index="0" disallow="pedestrian" speed="14.64" length="45.17" shape="1949.61,312.16 1950.86,307.35 1958.23,300.60 1970.52,296.55 1987.73,295.20"/>
        <lane id=":1081_19_1" index="0" disallow="pedestrian" speed="14.32" length="44.02" shape="1949.50,313.20 1950.86,308.75 1958.23,303.00 1970.52,299.55 1987.73,298.40"/>
    </edge>
    <edge id=":1081_20" function="internal">
        <lane id=":1081_20_0" index="0" disallow="pedestrian" speed="3.65" length="3.23" shape="1949.20,315.60 1950.00,315.20 1950.80,315.60 1951.60,316.80"/>
    </edge>
    <edge id=":1081_6" function="internal">
        <lane id=":1081_6_0" index="0" disallow="pedestrian" speed="11.09" length="28.20" shape="1987.73,311.20 1976.12,311.55 1967.83,312.60 1962.86,314.35 1961.20,316.80"/>
        <lane id=":1081_6_1" index="1" disallow="pedestrian" speed="11.95" length="32.95" shape="1987.73,308.00 1974.72,308.55 1965.43,310.20 1959.86,312.95 1958.00,316.80"/>
        <lane id=":1081_6_2" index="2" disallow="pedestrian" speed="12.47" length="35.96" shape="1987.73,308.00 1973.32,308.55 1963.03,310.20 1956.86,312.95 1954.80,316.80"/>
    </edge>
    <edge id=":1081_9" function="internal">
        <lane id=":1081_9_0" index="0" disallow="pedestrian" speed="11.63" length="49.86" shape="1987.73,304.80 1974.54,301.44 1967.08,292.92 1966.34,281.63 1973.29,269.93"/>
        <lane id=":1081_9_1" index="1" disallow="pedestrian" speed="10.72" length="42.05" shape="1987.73,301.60 1976.61,298.76 1970.32,291.58 1969.69,282.06 1975.55,272.19"/>
    </edge>
    <edge id=":1081_11" function="internal">
        <lane id=":1081_11_0" index="0" disallow="pedestrian" speed="3.65" length="4.67" shape="1987.73,301.60 1986.53,300.80 1986.13,300.00 1986.53,299.20 1987.73,298.40"/>
    </edge>
    <edge id=":1081_12" function="internal">
        <lane id=":1081_12_0" index="0" disallow="pedestrian" speed="6.26" length="13.24" shape="1984.60,281.24 1981.96,284.55 1981.60,286.91 1983.53,288.33 1987.73,288.80"/>
        <lane id=":1081_12_1" index="1" disallow="pedestrian" speed="7.20" length="18.04" shape="1984.60,281.24 1980.76,285.95 1980.00,289.31 1982.33,291.33 1987.73,292.00"/>
    </edge>
    <edge id=":1081_14" function="internal">
        <lane id=":1081_14_0" index="0" disallow="pedestrian" speed="21.43" length="43.31" shape="1984.60,281.24 1974.36,292.24 1967.05,301.83 1962.66,310.02 1961.20,316.80"/>
        <lane id=":1081_14_1" index="1" disallow="pedestrian" speed="22.03" length="45.80" shape="1982.34,278.98 1971.69,290.47 1964.08,300.60 1959.52,309.38 1958.00,316.80"/>
        <lane id=":1081_14_2" index="2" disallow="pedestrian" speed="22.94" length="49.68" shape="1980.07,276.71 1969.06,286.71 1961.15,294.15 1956.39,302.90 1954.80,316.80"/>
        <lane id=":1081_14_3" index="3" disallow="pedestrian" speed="23.51" length="52.20" shape="1977.81,274.45 1966.29,285.00 1958.10,292.89 1953.22,302.15 1951.60,316.80"/>
    </edge>
    <edge id=":1081_18" function="internal">
        <lane id=":1081_18_0" index="0" disallow="pedestrian" speed="3.65" length="2.34" shape="1977.81,274.45 1976.40,274.73 1975.55,274.45"/>
    </edge>
    <edge id=":1081_21" function="internal">
        <lane id=":1081_21_0" index="0" disallow="pedestrian" speed="3.65" length="2.34" shape="1975.55,274.45 1975.27,273.60 1975.55,272.19"/>
    </edge>
    <edge id=":1081_w0" function="walkingarea">